
     RDKit          3D

 52 54  0  0  0  0  0  0  0  0999 V2000
   -4.9277   -0.7349   -4.2220 C   0  0  0  0  0  0  0  0  0  0  0  0
   -3.6941   -0.3652   -3.6166 O   0  0  0  0  0  0  0  0  0  0  0  0
   -3.6225   -0.8214   -2.2662 C   0  0  0  0  0  0  0  0  0  0  0  0
   -2.2762   -0.4252   -1.6690 C   0  0  0  0  0  0  0  0  0  0  0  0
   -2.2438   -0.8508   -0.3071 O   0  0  0  0  0  0  0  0  0  0  0  0
   -1.2645   -0.3072    0.4779 C   0  0  0  0  0  0  0  0  0  0  0  0
   -0.0117    0.0680   -0.0143 C   0  0  0  0  0  0  0  0  0  0  0  0
    1.0072    0.5557    0.8484 C   0  0  0  0  0  0  0  0  0  0  0  0
    0.7631    0.6314    2.2251 C   0  0  0  0  0  0  0  0  0  0  0  0
   -0.4807    0.2450    2.7009 C   0  0  0  0  0  0  0  0  0  0  0  0
   -1.4997   -0.2020    1.8512 C   0  0  0  0  0  0  0  0  0  0  0  0
   -2.6587   -0.5533    2.4946 O   0  0  0  0  0  0  0  0  0  0  0  0
   -3.8626   -0.1096    1.8600 C   0  0  0  0  0  0  0  0  0  0  0  0
   -4.9286    0.0950    2.9325 C   0  0  0  0  0  0  0  0  0  0  0  0
   -6.1340    0.5567    2.3221 O   0  0  0  0  0  0  0  0  0  0  0  0
   -7.1619    0.7511    3.2844 C   0  0  0  0  0  0  0  0  0  0  0  0
    1.6791    1.0554    3.0998 N   0  0  0  0  0  0  0  0  0  0  0  0
    2.8691    1.4034    2.6019 C   0  0  0  0  0  0  0  0  0  0  0  0
    3.2228    1.3778    1.3144 N   0  0  0  0  0  0  0  0  0  0  0  0
    2.2931    0.9625    0.4366 C   0  0  0  0  0  0  0  0  0  0  0  0
    2.6008    0.9532   -0.9521 N   0  0  0  0  0  0  0  0  0  0  0  0
    3.8684    1.0526   -1.5715 C   0  0  0  0  0  0  0  0  0  0  0  0
    3.9415    1.5055   -2.8986 C   0  0  0  0  0  0  0  0  0  0  0  0
    5.1601    1.5547   -3.5797 C   0  0  0  0  0  0  0  0  0  0  0  0
    6.3283    1.1345   -2.9474 C   0  0  0  0  0  0  0  0  0  0  0  0
    6.2718    0.6458   -1.6427 C   0  0  0  0  0  0  0  0  0  0  0  0
    5.0456    0.5904   -0.9685 C   0  0  0  0  0  0  0  0  0  0  0  0
    7.4658    0.1865   -0.9998 C   0  0  0  0  0  0  0  0  0  0  0  0
    8.4687   -0.2011   -0.4651 C   0  0  0  0  0  0  0  0  0  0  0  0
   -4.9453   -0.3400   -5.2419 H   0  0  0  0  0  0  0  0  0  0  0  0
   -5.7722   -0.3151   -3.6672 H   0  0  0  0  0  0  0  0  0  0  0  0
   -5.0144   -1.8246   -4.2694 H   0  0  0  0  0  0  0  0  0  0  0  0
   -4.4359   -0.3802   -1.6774 H   0  0  0  0  0  0  0  0  0  0  0  0
   -3.7362   -1.9113   -2.2315 H   0  0  0  0  0  0  0  0  0  0  0  0
   -2.1516    0.6626   -1.7476 H   0  0  0  0  0  0  0  0  0  0  0  0
   -1.4774   -0.9118   -2.2415 H   0  0  0  0  0  0  0  0  0  0  0  0
    0.2177   -0.0577   -1.0688 H   0  0  0  0  0  0  0  0  0  0  0  0
   -0.6704    0.2972    3.7713 H   0  0  0  0  0  0  0  0  0  0  0  0
   -3.7205    0.8310    1.3119 H   0  0  0  0  0  0  0  0  0  0  0  0
   -4.2115   -0.8739    1.1568 H   0  0  0  0  0  0  0  0  0  0  0  0
   -5.1119   -0.8487    3.4613 H   0  0  0  0  0  0  0  0  0  0  0  0
   -4.5788    0.8274    3.6690 H   0  0  0  0  0  0  0  0  0  0  0  0
   -7.4222   -0.2003    3.7582 H   0  0  0  0  0  0  0  0  0  0  0  0
   -6.8519    1.4795    4.0398 H   0  0  0  0  0  0  0  0  0  0  0  0
   -8.0466    1.1375    2.7696 H   0  0  0  0  0  0  0  0  0  0  0  0
    3.6177    1.7412    3.3100 H   0  0  0  0  0  0  0  0  0  0  0  0
    1.9089    1.5129   -1.4400 H   0  0  0  0  0  0  0  0  0  0  0  0
    3.0431    1.8266   -3.4210 H   0  0  0  0  0  0  0  0  0  0  0  0
    5.1981    1.9202   -4.6021 H   0  0  0  0  0  0  0  0  0  0  0  0
    7.2756    1.1759   -3.4795 H   0  0  0  0  0  0  0  0  0  0  0  0
    5.0148    0.1727    0.0356 H   0  0  0  0  0  0  0  0  0  0  0  0
    9.3566   -0.5430    0.0143 H   0  0  0  0  0  0  0  0  0  0  0  0
  1  2  1  0
  2  3  1  0
  3  4  1  0
  4  5  1  0
  5  6  1  0
  6  7  2  0
  7  8  1  0
  8  9  2  0
  9 10  1  0
 10 11  2  0
 11 12  1  0
 12 13  1  0
 13 14  1  0
 14 15  1  0
 15 16  1  0
  9 17  1  0
 17 18  2  0
 18 19  1  0
 19 20  2  0
 20 21  1  0
 21 22  1  0
 22 23  2  0
 23 24  1  0
 24 25  2  0
 25 26  1  0
 26 27  2  0
 26 28  1  0
 28 29  3  0
 11  6  1  0
 20  8  1  0
 27 22  1  0
  1 30  1  0
  1 31  1  0
  1 32  1  0
  3 33  1  0
  3 34  1  0
  4 35  1  0
  4 36  1  0
  7 37  1  0
 10 38  1  0
 13 39  1  0
 13 40  1  0
 14 41  1  0
 14 42  1  0
 16 43  1  0
 16 44  1  0
 16 45  1  0
 18 46  1  0
 21 47  1  0
 23 48  1  0
 24 49  1  0
 25 50  1  0
 27 51  1  0
 29 52  1  0
M  END
>  <energy_abs>  (1) 
55.37797115419901

>  <SMILES>  (1) 
COCCOc1cc2c(cc1OCCOC)ncnc2Nc3cccc(c3)C#C

>  <cluster_no>  (1) 
60

>  <fda_drugs_id>  (1) 
1M17_AQ4

>  <initial_conformation_id>  (1) 
244

>  <minimize_method>  (1) 
MMFF

$$$$
