
     RDKit          3D

 48 50  0  0  0  0  0  0  0  0999 V2000
    6.2413   -4.6515    1.2010 C   0  0  0  0  0  0  0  0  0  0  0  0
    6.0592   -3.5858    0.2545 N   0  0  0  0  0  0  0  0  0  0  0  0
    5.2502   -2.4988    0.5103 C   0  0  0  0  0  0  0  0  0  0  0  0
    4.7012   -2.2866    1.5852 O   0  0  0  0  0  0  0  0  0  0  0  0
    5.0767   -1.5735   -0.6569 C   0  0  0  0  0  0  0  0  0  0  0  0
    4.3059   -0.4302   -0.5193 C   0  0  0  0  0  0  0  0  0  0  0  0
    4.1734    0.3904   -1.6344 C   0  0  0  0  0  0  0  0  0  0  0  0
    4.8290    0.0704   -2.8193 C   0  0  0  0  0  0  0  0  0  0  0  0
    5.5740   -1.0951   -2.8597 C   0  0  0  0  0  0  0  0  0  0  0  0
    5.7128   -1.9331   -1.8106 N   0  0  0  0  0  0  0  0  0  0  0  0
    3.4676    1.5726   -1.6151 O   0  0  0  0  0  0  0  0  0  0  0  0
    2.2336    1.5525   -1.0090 C   0  0  0  0  0  0  0  0  0  0  0  0
    1.2370    0.6508   -1.3807 C   0  0  0  0  0  0  0  0  0  0  0  0
   -0.0130    0.6947   -0.7536 C   0  0  0  0  0  0  0  0  0  0  0  0
   -0.2795    1.6487    0.2316 C   0  0  0  0  0  0  0  0  0  0  0  0
    0.7269    2.5587    0.5849 C   0  0  0  0  0  0  0  0  0  0  0  0
    1.9756    2.5195   -0.0415 C   0  0  0  0  0  0  0  0  0  0  0  0
   -1.5062    1.7440    0.9212 N   0  0  0  0  0  0  0  0  0  0  0  0
   -2.6921    1.0886    0.6232 C   0  0  0  0  0  0  0  0  0  0  0  0
   -2.8889    0.4032   -0.3707 O   0  0  0  0  0  0  0  0  0  0  0  0
   -3.6289    1.3235    1.6208 N   0  0  0  0  0  0  0  0  0  0  0  0
   -4.9845    0.9372    1.6278 C   0  0  0  0  0  0  0  0  0  0  0  0
   -5.6836    1.0779    2.8297 C   0  0  0  0  0  0  0  0  0  0  0  0
   -7.0319    0.7232    2.9112 C   0  0  0  0  0  0  0  0  0  0  0  0
   -7.7005    0.2297    1.7886 C   0  0  0  0  0  0  0  0  0  0  0  0
   -7.0269    0.0906    0.5710 C   0  0  0  0  0  0  0  0  0  0  0  0
   -5.6638    0.4526    0.5060 C   0  0  0  0  0  0  0  0  0  0  0  0
   -7.7252   -0.4292   -0.6568 C   0  0  0  0  0  0  0  0  0  0  0  0
   -6.9201   -0.4872   -1.7564 F   0  0  0  0  0  0  0  0  0  0  0  0
   -8.2092   -1.6923   -0.4987 F   0  0  0  0  0  0  0  0  0  0  0  0
   -8.7836    0.3429   -1.0304 F   0  0  0  0  0  0  0  0  0  0  0  0
   -9.3652   -0.1858    1.9735 Cl  0  0  0  0  0  0  0  0  0  0  0  0
    5.4114   -5.3550    1.0958 H   0  0  0  0  0  0  0  0  0  0  0  0
    6.2586   -4.2598    2.2214 H   0  0  0  0  0  0  0  0  0  0  0  0
    7.1835   -5.1572    0.9784 H   0  0  0  0  0  0  0  0  0  0  0  0
    6.3680   -3.6922   -0.7088 H   0  0  0  0  0  0  0  0  0  0  0  0
    3.8358   -0.1922    0.4282 H   0  0  0  0  0  0  0  0  0  0  0  0
    4.7546    0.7126   -3.6899 H   0  0  0  0  0  0  0  0  0  0  0  0
    6.0964   -1.3916   -3.7653 H   0  0  0  0  0  0  0  0  0  0  0  0
    1.4164   -0.0882   -2.1566 H   0  0  0  0  0  0  0  0  0  0  0  0
   -0.7568   -0.0366   -1.0557 H   0  0  0  0  0  0  0  0  0  0  0  0
    0.5540    3.3148    1.3460 H   0  0  0  0  0  0  0  0  0  0  0  0
    2.7456    3.2357    0.2316 H   0  0  0  0  0  0  0  0  0  0  0  0
   -1.5732    2.4856    1.6011 H   0  0  0  0  0  0  0  0  0  0  0  0
   -3.2517    1.6423    2.5006 H   0  0  0  0  0  0  0  0  0  0  0  0
   -5.1925    1.4580    3.7221 H   0  0  0  0  0  0  0  0  0  0  0  0
   -7.5566    0.8341    3.8578 H   0  0  0  0  0  0  0  0  0  0  0  0
   -5.1517    0.3534   -0.4494 H   0  0  0  0  0  0  0  0  0  0  0  0
  1  2  1  0
  2  3  1  0
  3  4  2  0
  3  5  1  0
  5  6  2  0
  6  7  1  0
  7  8  2  0
  8  9  1  0
  9 10  2  0
  7 11  1  0
 11 12  1  0
 12 13  2  0
 13 14  1  0
 14 15  2  0
 15 16  1  0
 16 17  2  0
 15 18  1  0
 18 19  1  0
 19 20  2  0
 19 21  1  0
 21 22  1  0
 22 23  2  0
 23 24  1  0
 24 25  2  0
 25 26  1  0
 26 27  2  0
 26 28  1  0
 28 29  1  0
 28 30  1  0
 28 31  1  0
 25 32  1  0
 10  5  1  0
 17 12  1  0
 27 22  1  0
  1 33  1  0
  1 34  1  0
  1 35  1  0
  2 36  1  0
  6 37  1  0
  8 38  1  0
  9 39  1  0
 13 40  1  0
 14 41  1  0
 16 42  1  0
 17 43  1  0
 18 44  1  0
 21 45  1  0
 23 46  1  0
 24 47  1  0
 27 48  1  0
M  END
>  <energy_abs>  (1) 
-3.2473413877451263

>  <SMILES>  (1) 
CNC(=O)c1cc(ccn1)Oc2ccc(cc2)NC(=O)Nc3ccc(c(c3)C(F)(F)F)Cl

>  <cluster_no>  (1) 
48

>  <fda_drugs_id>  (1) 
1UWH_BAX

>  <initial_conformation_id>  (1) 
200

>  <minimize_method>  (1) 
MMFF

$$$$
