
     RDKit          3D

 66 70  0  0  0  0  0  0  0  0999 V2000
   -8.9543   -4.9746    3.0788 C   0  0  0  0  0  0  0  0  0  0  0  0
   -7.3312   -4.7724    2.3843 S   0  0  0  0  0  6  0  0  0  0  0  0
   -7.1911   -5.7316    1.3046 O   0  0  0  0  0  0  0  0  0  0  0  0
   -6.3828   -4.7436    3.4825 O   0  0  0  0  0  0  0  0  0  0  0  0
   -7.3991   -3.1380    1.6762 C   0  0  0  0  0  0  0  0  0  0  0  0
   -6.0993   -2.8224    0.9485 C   0  0  0  0  0  0  0  0  0  0  0  0
   -6.1476   -1.4601    0.4017 N   0  0  0  0  0  0  0  0  0  0  0  0
   -4.9543   -1.1903   -0.4143 C   0  0  0  0  0  0  0  0  0  0  0  0
   -5.0044    0.1872   -0.9758 C   0  0  0  0  0  0  0  0  0  0  0  0
   -5.9881    0.9216   -1.6038 C   0  0  0  0  0  0  0  0  0  0  0  0
   -5.4109    2.1750   -1.9203 C   0  0  0  0  0  0  0  0  0  0  0  0
   -4.1023    2.1358   -1.4781 C   0  0  0  0  0  0  0  0  0  0  0  0
   -3.8586    0.9226   -0.8954 O   0  0  0  0  0  0  0  0  0  0  0  0
   -2.9869    3.0779   -1.5046 C   0  0  0  0  0  0  0  0  0  0  0  0
   -3.1854    4.4100   -1.8700 C   0  0  0  0  0  0  0  0  0  0  0  0
   -2.1096    5.3056   -1.9114 C   0  0  0  0  0  0  0  0  0  0  0  0
   -0.8156    4.9171   -1.5953 C   0  0  0  0  0  0  0  0  0  0  0  0
   -0.5892    3.5880   -1.2164 C   0  0  0  0  0  0  0  0  0  0  0  0
   -1.6827    2.6787   -1.1812 C   0  0  0  0  0  0  0  0  0  0  0  0
    0.7493    3.2667   -0.9091 C   0  0  0  0  0  0  0  0  0  0  0  0
    1.7380    4.1756   -0.9966 N   0  0  0  0  0  0  0  0  0  0  0  0
    1.3931    5.4096   -1.3718 C   0  0  0  0  0  0  0  0  0  0  0  0
    0.1588    5.8273   -1.6691 N   0  0  0  0  0  0  0  0  0  0  0  0
    1.0601    1.9456   -0.4833 N   0  0  0  0  0  0  0  0  0  0  0  0
    2.3338    1.3430   -0.3845 C   0  0  0  0  0  0  0  0  0  0  0  0
    2.5319    0.3071    0.5394 C   0  0  0  0  0  0  0  0  0  0  0  0
    3.7636   -0.3527    0.6408 C   0  0  0  0  0  0  0  0  0  0  0  0
    4.8232   -0.0018   -0.1991 C   0  0  0  0  0  0  0  0  0  0  0  0
    4.6152    0.9955   -1.1617 C   0  0  0  0  0  0  0  0  0  0  0  0
    3.3843    1.6554   -1.2539 C   0  0  0  0  0  0  0  0  0  0  0  0
    5.8677    1.4497   -2.2675 Cl  0  0  0  0  0  0  0  0  0  0  0  0
    6.0534   -0.6051   -0.1734 O   0  0  0  0  0  0  0  0  0  0  0  0
    6.4436   -1.2162    1.0566 C   0  0  0  0  0  0  0  0  0  0  0  0
    7.9128   -1.5554    0.9834 C   0  0  0  0  0  0  0  0  0  0  0  0
    8.3992   -2.3945   -0.0336 C   0  0  0  0  0  0  0  0  0  0  0  0
    9.7549   -2.7267   -0.0969 C   0  0  0  0  0  0  0  0  0  0  0  0
   10.6385   -2.2243    0.8565 C   0  0  0  0  0  0  0  0  0  0  0  0
   10.1597   -1.3947    1.8636 C   0  0  0  0  0  0  0  0  0  0  0  0
    8.8117   -1.0575    1.9370 C   0  0  0  0  0  0  0  0  0  0  0  0
   11.0091   -0.9120    2.7821 F   0  0  0  0  0  0  0  0  0  0  0  0
   -9.0072   -5.9638    3.5381 H   0  0  0  0  0  0  0  0  0  0  0  0
   -9.6936   -4.8961    2.2788 H   0  0  0  0  0  0  0  0  0  0  0  0
   -9.1138   -4.2021    3.8343 H   0  0  0  0  0  0  0  0  0  0  0  0
   -8.2501   -3.1150    0.9872 H   0  0  0  0  0  0  0  0  0  0  0  0
   -7.5802   -2.4365    2.4981 H   0  0  0  0  0  0  0  0  0  0  0  0
   -5.9575   -3.5447    0.1354 H   0  0  0  0  0  0  0  0  0  0  0  0
   -5.2468   -2.9221    1.6304 H   0  0  0  0  0  0  0  0  0  0  0  0
   -6.1601   -0.7824    1.1659 H   0  0  0  0  0  0  0  0  0  0  0  0
   -4.8964   -1.9010   -1.2485 H   0  0  0  0  0  0  0  0  0  0  0  0
   -4.0474   -1.3079    0.1945 H   0  0  0  0  0  0  0  0  0  0  0  0
   -6.9965    0.5846   -1.8042 H   0  0  0  0  0  0  0  0  0  0  0  0
   -5.8925    3.0021   -2.4234 H   0  0  0  0  0  0  0  0  0  0  0  0
   -4.1745    4.7776   -2.1315 H   0  0  0  0  0  0  0  0  0  0  0  0
   -2.2913    6.3377   -2.2055 H   0  0  0  0  0  0  0  0  0  0  0  0
   -1.5016    1.6373   -0.9205 H   0  0  0  0  0  0  0  0  0  0  0  0
    2.1902    6.1429   -1.4396 H   0  0  0  0  0  0  0  0  0  0  0  0
    0.4613    1.7051    0.2999 H   0  0  0  0  0  0  0  0  0  0  0  0
    1.7246    0.0001    1.2016 H   0  0  0  0  0  0  0  0  0  0  0  0
    3.8539   -1.1480    1.3739 H   0  0  0  0  0  0  0  0  0  0  0  0
    3.2488    2.4145   -2.0197 H   0  0  0  0  0  0  0  0  0  0  0  0
    6.2614   -0.5317    1.8953 H   0  0  0  0  0  0  0  0  0  0  0  0
    5.8851   -2.1470    1.2177 H   0  0  0  0  0  0  0  0  0  0  0  0
    7.7181   -2.7853   -0.7891 H   0  0  0  0  0  0  0  0  0  0  0  0
   10.1199   -3.3727   -0.8913 H   0  0  0  0  0  0  0  0  0  0  0  0
   11.6944   -2.4699    0.8199 H   0  0  0  0  0  0  0  0  0  0  0  0
    8.4808   -0.4024    2.7381 H   0  0  0  0  0  0  0  0  0  0  0  0
  1  2  1  0
  2  3  2  0
  2  4  2  0
  2  5  1  0
  5  6  1  0
  6  7  1  0
  7  8  1  0
  8  9  1  0
  9 10  2  0
 10 11  1  0
 11 12  2  0
 12 13  1  0
 12 14  1  0
 14 15  2  0
 15 16  1  0
 16 17  2  0
 17 18  1  0
 18 19  2  0
 18 20  1  0
 20 21  2  0
 21 22  1  0
 22 23  2  0
 20 24  1  0
 24 25  1  0
 25 26  2  0
 26 27  1  0
 27 28  2  0
 28 29  1  0
 29 30  2  0
 29 31  1  0
 28 32  1  0
 32 33  1  0
 33 34  1  0
 34 35  2  0
 35 36  1  0
 36 37  2  0
 37 38  1  0
 38 39  2  0
 38 40  1  0
 13  9  1  0
 19 14  1  0
 23 17  1  0
 30 25  1  0
 39 34  1  0
  1 41  1  0
  1 42  1  0
  1 43  1  0
  5 44  1  0
  5 45  1  0
  6 46  1  0
  6 47  1  0
  7 48  1  0
  8 49  1  0
  8 50  1  0
 10 51  1  0
 11 52  1  0
 15 53  1  0
 16 54  1  0
 19 55  1  0
 22 56  1  0
 24 57  1  0
 26 58  1  0
 27 59  1  0
 30 60  1  0
 33 61  1  0
 33 62  1  0
 35 63  1  0
 36 64  1  0
 37 65  1  0
 39 66  1  0
M  END
>  <energy_abs>  (1) 
46.88393170934297

>  <SMILES>  (1) 
CS(=O)(=O)CCNCc1ccc(o1)c2ccc3c(c2)c(ncn3)Nc4ccc(c(c4)Cl)OCc5cccc(c5)F

>  <cluster_no>  (1) 
271

>  <fda_drugs_id>  (1) 
1XKK_FMM

>  <initial_conformation_id>  (1) 
29

>  <minimize_method>  (1) 
MMFF

$$$$
