
     RDKit          3D

 37 39  0  0  0  0  0  0  0  0999 V2000
   -2.8945   -2.6283    0.3429 C   0  0  0  0  0  0  0  0  0  0  0  0
   -3.8237   -1.5963    0.2464 C   0  0  0  0  0  0  0  0  0  0  0  0
   -3.4407   -0.3191   -0.2015 C   0  0  0  0  0  0  0  0  0  0  0  0
   -4.3724    0.7181   -0.3005 C   0  0  0  0  0  0  0  0  0  0  0  0
   -4.0930    1.9708   -0.7215 N   0  0  0  0  0  0  0  0  0  0  0  0
   -2.8181    2.2085   -1.0753 C   0  0  0  0  0  0  0  0  0  0  0  0
   -1.8114    1.2565   -1.0157 C   0  0  0  0  0  0  0  0  0  0  0  0
   -2.1008   -0.0524   -0.5642 C   0  0  0  0  0  0  0  0  0  0  0  0
   -1.1697   -1.1221   -0.4422 C   0  0  0  0  0  0  0  0  0  0  0  0
   -1.5685   -2.3945   -0.0004 C   0  0  0  0  0  0  0  0  0  0  0  0
    0.5574   -0.9014   -0.8341 S   0  0  0  0  0  6  0  0  0  0  0  0
    1.2780   -2.0940   -0.4368 O   0  0  0  0  0  0  0  0  0  0  0  0
    0.6286   -0.4103   -2.1939 O   0  0  0  0  0  0  0  0  0  0  0  0
    1.0509    0.3522    0.2277 N   0  0  0  0  0  0  0  0  0  0  0  0
    0.9832    0.0067    1.6791 C   0  0  0  0  0  0  0  0  0  0  0  0
    0.6975    1.2739    2.4755 C   0  0  0  0  0  0  0  0  0  0  0  0
    1.9528    2.0365    2.8990 C   0  0  0  0  0  0  0  0  0  0  0  0
    3.0663    2.0921    1.9559 N   0  0  0  0  0  0  0  0  0  0  0  0
    2.6708    2.2639    0.5556 C   0  0  0  0  0  0  0  0  0  0  0  0
    2.3782    0.9289   -0.1554 C   0  0  0  0  0  0  0  0  0  0  0  0
   -3.2049   -3.6131    0.6844 H   0  0  0  0  0  0  0  0  0  0  0  0
   -4.8586   -1.7958    0.5199 H   0  0  0  0  0  0  0  0  0  0  0  0
   -5.4152    0.5637   -0.0328 H   0  0  0  0  0  0  0  0  0  0  0  0
   -2.6115    3.2169   -1.4229 H   0  0  0  0  0  0  0  0  0  0  0  0
   -0.8158    1.5518   -1.3304 H   0  0  0  0  0  0  0  0  0  0  0  0
   -0.8504   -3.2089    0.0787 H   0  0  0  0  0  0  0  0  0  0  0  0
    0.1508   -0.6815    1.8563 H   0  0  0  0  0  0  0  0  0  0  0  0
    1.8952   -0.5006    2.0127 H   0  0  0  0  0  0  0  0  0  0  0  0
    0.0344    1.9377    1.9058 H   0  0  0  0  0  0  0  0  0  0  0  0
    0.1517    1.0037    3.3883 H   0  0  0  0  0  0  0  0  0  0  0  0
    2.3381    1.5858    3.8215 H   0  0  0  0  0  0  0  0  0  0  0  0
    1.6570    3.0590    3.1651 H   0  0  0  0  0  0  0  0  0  0  0  0
    3.6842    2.8565    2.2312 H   0  0  0  0  0  0  0  0  0  0  0  0
    1.8377    2.9696    0.4531 H   0  0  0  0  0  0  0  0  0  0  0  0
    3.5247    2.7187    0.0383 H   0  0  0  0  0  0  0  0  0  0  0  0
    3.1762    0.2024    0.0407 H   0  0  0  0  0  0  0  0  0  0  0  0
    2.3781    1.1388   -1.2311 H   0  0  0  0  0  0  0  0  0  0  0  0
  1  2  2  0
  2  3  1  0
  3  4  2  0
  4  5  1  0
  5  6  2  0
  6  7  1  0
  7  8  2  0
  8  9  1  0
  9 10  2  0
  9 11  1  0
 11 12  2  0
 11 13  2  0
 11 14  1  0
 14 15  1  0
 15 16  1  0
 16 17  1  0
 17 18  1  0
 18 19  1  0
 19 20  1  0
 10  1  1  0
  8  3  1  0
 20 14  1  0
  1 21  1  0
  2 22  1  0
  4 23  1  0
  6 24  1  0
  7 25  1  0
 10 26  1  0
 15 27  1  0
 15 28  1  0
 16 29  1  0
 16 30  1  0
 17 31  1  0
 17 32  1  0
 18 33  1  0
 19 34  1  0
 19 35  1  0
 20 36  1  0
 20 37  1  0
M  END
>  <energy_abs>  (1) 
15.593418216640831

>  <SMILES>  (1) 
c1cc2cnccc2c(c1)S(=O)(=O)N3CCCNCC3

>  <cluster_no>  (1) 
118

>  <fda_drugs_id>  (1) 
2F2U_M77

>  <initial_conformation_id>  (1) 
89

>  <minimize_method>  (1) 
MMFF

$$$$
