
     RDKit          3D

 59 62  0  0  0  0  0  0  0  0999 V2000
   -7.4502   -0.5740    2.3043 C   0  0  0  0  0  0  0  0  0  0  0  0
   -7.5035    0.9296    2.2775 C   0  0  0  0  0  0  0  0  0  0  0  0
   -8.6658    1.5260    2.8114 C   0  0  0  0  0  0  0  0  0  0  0  0
   -8.7840    2.9090    2.9400 C   0  0  0  0  0  0  0  0  0  0  0  0
   -7.7351    3.7279    2.5444 C   0  0  0  0  0  0  0  0  0  0  0  0
   -6.5881    3.1580    1.9900 C   0  0  0  0  0  0  0  0  0  0  0  0
   -6.4698    1.7610    1.8042 C   0  0  0  0  0  0  0  0  0  0  0  0
   -5.2700    1.3012    1.1977 N   0  0  0  0  0  0  0  0  0  0  0  0
   -5.1361    0.2449    0.3092 C   0  0  0  0  0  0  0  0  0  0  0  0
   -6.0835   -0.4031   -0.1247 O   0  0  0  0  0  0  0  0  0  0  0  0
   -3.7664    0.0133   -0.1202 C   0  0  0  0  0  0  0  0  0  0  0  0
   -2.5689    0.4596    0.3984 C   0  0  0  0  0  0  0  0  0  0  0  0
   -1.4321    0.0535   -0.2712 N   0  0  0  0  0  0  0  0  0  0  0  0
   -1.7434   -0.7173   -1.2902 C   0  0  0  0  0  0  0  0  0  0  0  0
   -3.4405   -0.9873   -1.4742 S   0  0  0  0  0  0  0  0  0  0  0  0
   -0.9006   -1.2993   -2.1640 N   0  0  0  0  0  0  0  0  0  0  0  0
    0.4875   -1.2561   -2.2495 C   0  0  0  0  0  0  0  0  0  0  0  0
    1.2982   -0.4817   -1.4457 C   0  0  0  0  0  0  0  0  0  0  0  0
    2.6692   -0.5432   -1.6340 C   0  0  0  0  0  0  0  0  0  0  0  0
    3.1898   -1.3134   -2.6025 N   0  0  0  0  0  0  0  0  0  0  0  0
    2.3408   -2.0293   -3.3543 C   0  0  0  0  0  0  0  0  0  0  0  0
    1.0070   -2.0415   -3.2072 N   0  0  0  0  0  0  0  0  0  0  0  0
    2.9275   -2.9161   -4.4068 C   0  0  0  0  0  0  0  0  0  0  0  0
    3.5228    0.2476   -0.8344 N   0  0  0  0  0  0  0  0  0  0  0  0
    3.4007   -0.0416    0.6100 C   0  0  0  0  0  0  0  0  0  0  0  0
    4.2883    0.9262    1.4323 C   0  0  0  0  0  0  0  0  0  0  0  0
    5.7131    0.9091    1.0177 N   0  0  0  0  0  0  0  0  0  0  0  0
    5.7809    1.1943   -0.4389 C   0  0  0  0  0  0  0  0  0  0  0  0
    4.9301    0.2203   -1.2852 C   0  0  0  0  0  0  0  0  0  0  0  0
    6.5102    1.9134    1.7586 C   0  0  0  0  0  0  0  0  0  0  0  0
    6.7177    1.5154    3.2279 C   0  0  0  0  0  0  0  0  0  0  0  0
    7.1861    0.1702    3.3037 O   0  0  0  0  0  0  0  0  0  0  0  0
   -5.3125    4.2307    1.5049 Cl  0  0  0  0  0  0  0  0  0  0  0  0
   -7.9886   -0.9601    3.1777 H   0  0  0  0  0  0  0  0  0  0  0  0
   -7.9217   -0.9919    1.4105 H   0  0  0  0  0  0  0  0  0  0  0  0
   -6.4250   -0.9421    2.4026 H   0  0  0  0  0  0  0  0  0  0  0  0
   -9.4877    0.8987    3.1554 H   0  0  0  0  0  0  0  0  0  0  0  0
   -9.6870    3.3413    3.3640 H   0  0  0  0  0  0  0  0  0  0  0  0
   -7.8180    4.8049    2.6617 H   0  0  0  0  0  0  0  0  0  0  0  0
   -4.5561    2.0182    1.1207 H   0  0  0  0  0  0  0  0  0  0  0  0
   -2.4514    1.0855    1.2750 H   0  0  0  0  0  0  0  0  0  0  0  0
   -1.2735   -1.9228   -2.8682 H   0  0  0  0  0  0  0  0  0  0  0  0
    0.8842    0.1843   -0.7036 H   0  0  0  0  0  0  0  0  0  0  0  0
    3.0290   -3.9331   -4.0171 H   0  0  0  0  0  0  0  0  0  0  0  0
    2.2825   -2.9386   -5.2907 H   0  0  0  0  0  0  0  0  0  0  0  0
    3.9147   -2.5559   -4.7125 H   0  0  0  0  0  0  0  0  0  0  0  0
    3.7020   -1.0781    0.8144 H   0  0  0  0  0  0  0  0  0  0  0  0
    2.3696    0.0827    0.9601 H   0  0  0  0  0  0  0  0  0  0  0  0
    4.2031    0.6334    2.4841 H   0  0  0  0  0  0  0  0  0  0  0  0
    3.8813    1.9418    1.3385 H   0  0  0  0  0  0  0  0  0  0  0  0
    5.4471    2.2220   -0.6369 H   0  0  0  0  0  0  0  0  0  0  0  0
    6.8215    1.1152   -0.7764 H   0  0  0  0  0  0  0  0  0  0  0  0
    5.3483   -0.7917   -1.1962 H   0  0  0  0  0  0  0  0  0  0  0  0
    5.0020    0.5344   -2.3343 H   0  0  0  0  0  0  0  0  0  0  0  0
    7.5071    1.9603    1.3009 H   0  0  0  0  0  0  0  0  0  0  0  0
    6.0706    2.9159    1.6932 H   0  0  0  0  0  0  0  0  0  0  0  0
    7.4616    2.1649    3.6992 H   0  0  0  0  0  0  0  0  0  0  0  0
    5.7898    1.5904    3.8022 H   0  0  0  0  0  0  0  0  0  0  0  0
    6.7679   -0.2831    2.5430 H   0  0  0  0  0  0  0  0  0  0  0  0
  1  2  1  0
  2  3  2  0
  3  4  1  0
  4  5  2  0
  5  6  1  0
  6  7  2  0
  7  8  1  0
  8  9  1  0
  9 10  2  0
  9 11  1  0
 11 12  2  0
 12 13  1  0
 13 14  2  0
 14 15  1  0
 14 16  1  0
 16 17  1  0
 17 18  2  0
 18 19  1  0
 19 20  2  0
 20 21  1  0
 21 22  2  0
 21 23  1  0
 19 24  1  0
 24 25  1  0
 25 26  1  0
 26 27  1  0
 27 28  1  0
 28 29  1  0
 27 30  1  0
 30 31  1  0
 31 32  1  0
  6 33  1  0
  7  2  1  0
 15 11  1  0
 22 17  1  0
 29 24  1  0
  1 34  1  0
  1 35  1  0
  1 36  1  0
  3 37  1  0
  4 38  1  0
  5 39  1  0
  8 40  1  0
 12 41  1  0
 16 42  1  0
 18 43  1  0
 23 44  1  0
 23 45  1  0
 23 46  1  0
 25 47  1  0
 25 48  1  0
 26 49  1  0
 26 50  1  0
 28 51  1  0
 28 52  1  0
 29 53  1  0
 29 54  1  0
 30 55  1  0
 30 56  1  0
 31 57  1  0
 31 58  1  0
 32 59  1  0
M  END
>  <energy_abs>  (1) 
7.244694217814461

>  <SMILES>  (1) 
Cc1cccc(c1NC(=O)c2cnc(s2)Nc3cc(nc(n3)C)N4CCN(CC4)CCO)Cl

>  <cluster_no>  (1) 
200

>  <fda_drugs_id>  (1) 
2GQG_1N1

>  <initial_conformation_id>  (1) 
85

>  <minimize_method>  (1) 
MMFF

$$$$
