
     RDKit          3D

 55 58  0  0  0  0  0  0  0  0999 V2000
   -0.0547   -5.0848    3.0652 C   0  0  0  0  0  0  0  0  0  0  0  0
    0.3007   -4.1512    2.0561 O   0  0  0  0  0  0  0  0  0  0  0  0
   -0.5885   -3.1456    1.7652 C   0  0  0  0  0  0  0  0  0  0  0  0
   -1.8260   -2.9772    2.4018 C   0  0  0  0  0  0  0  0  0  0  0  0
   -2.6680   -1.9232    2.0387 C   0  0  0  0  0  0  0  0  0  0  0  0
   -2.2619   -1.0349    1.0364 C   0  0  0  0  0  0  0  0  0  0  0  0
   -1.0302   -1.1899    0.3928 C   0  0  0  0  0  0  0  0  0  0  0  0
   -0.1884   -2.2448    0.7534 C   0  0  0  0  0  0  0  0  0  0  0  0
    1.0378   -2.4865    0.1850 O   0  0  0  0  0  0  0  0  0  0  0  0
    1.4887   -1.5913   -0.8338 C   0  0  0  0  0  0  0  0  0  0  0  0
    2.8651   -2.0678   -1.2911 C   0  0  0  0  0  0  0  0  0  0  0  0
    3.4237   -1.2464   -2.4563 C   0  0  0  0  0  0  0  0  0  0  0  0
    3.5257    0.1949   -2.1815 N   0  0  0  0  0  0  0  0  0  0  0  0
    4.5621    0.4985   -1.1687 C   0  0  0  0  0  0  0  0  0  0  0  0
    4.7184    2.0143   -0.9599 C   0  0  0  0  0  0  0  0  0  0  0  0
    5.0462    2.6780   -2.1871 O   0  0  0  0  0  0  0  0  0  0  0  0
    4.0221    2.4356   -3.1603 C   0  0  0  0  0  0  0  0  0  0  0  0
    3.8550    0.9311   -3.4238 C   0  0  0  0  0  0  0  0  0  0  0  0
   -3.1940    0.0779    0.6831 C   0  0  0  0  0  0  0  0  0  0  0  0
   -2.8526    0.9209   -0.2460 N   0  0  0  0  0  0  0  0  0  0  0  0
   -3.7292    1.9615   -0.5776 C   0  0  0  0  0  0  0  0  0  0  0  0
   -3.5637    3.2249    0.0019 C   0  0  0  0  0  0  0  0  0  0  0  0
   -4.4131    4.2772   -0.3425 C   0  0  0  0  0  0  0  0  0  0  0  0
   -5.4215    4.0642   -1.2769 C   0  0  0  0  0  0  0  0  0  0  0  0
   -5.5848    2.8145   -1.8723 C   0  0  0  0  0  0  0  0  0  0  0  0
   -4.7348    1.7642   -1.5291 C   0  0  0  0  0  0  0  0  0  0  0  0
   -6.8279    2.5530   -3.0357 Cl  0  0  0  0  0  0  0  0  0  0  0  0
   -6.2294    5.0866   -1.5959 F   0  0  0  0  0  0  0  0  0  0  0  0
   -4.4023    0.1963    1.3432 N   0  0  0  0  0  0  0  0  0  0  0  0
   -4.6752   -0.6758    2.2525 C   0  0  0  0  0  0  0  0  0  0  0  0
   -3.9034   -1.7221    2.6565 N   0  0  0  0  0  0  0  0  0  0  0  0
   -0.1752   -4.5912    4.0351 H   0  0  0  0  0  0  0  0  0  0  0  0
    0.7640   -5.8050    3.1584 H   0  0  0  0  0  0  0  0  0  0  0  0
   -0.9566   -5.6408    2.7886 H   0  0  0  0  0  0  0  0  0  0  0  0
   -2.1496   -3.6566    3.1819 H   0  0  0  0  0  0  0  0  0  0  0  0
   -0.7557   -0.4785   -0.3791 H   0  0  0  0  0  0  0  0  0  0  0  0
    1.5606   -0.5759   -0.4274 H   0  0  0  0  0  0  0  0  0  0  0  0
    0.7948   -1.6118   -1.6825 H   0  0  0  0  0  0  0  0  0  0  0  0
    2.7928   -3.1184   -1.6014 H   0  0  0  0  0  0  0  0  0  0  0  0
    3.5569   -2.0705   -0.4404 H   0  0  0  0  0  0  0  0  0  0  0  0
    4.3987   -1.6563   -2.7504 H   0  0  0  0  0  0  0  0  0  0  0  0
    2.7515   -1.3988   -3.3112 H   0  0  0  0  0  0  0  0  0  0  0  0
    5.5271    0.0830   -1.4869 H   0  0  0  0  0  0  0  0  0  0  0  0
    4.2999    0.0506   -0.2048 H   0  0  0  0  0  0  0  0  0  0  0  0
    3.8040    2.4540   -0.5432 H   0  0  0  0  0  0  0  0  0  0  0  0
    5.5315    2.2079   -0.2529 H   0  0  0  0  0  0  0  0  0  0  0  0
    3.0827    2.8872   -2.8189 H   0  0  0  0  0  0  0  0  0  0  0  0
    4.3178    2.9427   -4.0843 H   0  0  0  0  0  0  0  0  0  0  0  0
    3.0568    0.7924   -4.1621 H   0  0  0  0  0  0  0  0  0  0  0  0
    4.7869    0.5397   -3.8526 H   0  0  0  0  0  0  0  0  0  0  0  0
   -2.7703    3.3799    0.7280 H   0  0  0  0  0  0  0  0  0  0  0  0
   -4.2937    5.2564    0.1092 H   0  0  0  0  0  0  0  0  0  0  0  0
   -4.8491    0.7870   -1.9880 H   0  0  0  0  0  0  0  0  0  0  0  0
   -5.6315   -0.6138    2.7983 H   0  0  0  0  0  0  0  0  0  0  0  0
   -4.2229   -2.3657    3.3657 H   0  0  0  0  0  0  0  0  0  0  0  0
  1  2  1  0
  2  3  1  0
  3  4  2  0
  4  5  1  0
  5  6  2  0
  6  7  1  0
  7  8  2  0
  8  9  1  0
  9 10  1  0
 10 11  1  0
 11 12  1  0
 12 13  1  0
 13 14  1  0
 14 15  1  0
 15 16  1  0
 16 17  1  0
 17 18  1  0
  6 19  1  0
 19 20  2  0
 20 21  1  0
 21 22  2  0
 22 23  1  0
 23 24  2  0
 24 25  1  0
 25 26  2  0
 25 27  1  0
 24 28  1  0
 19 29  1  0
 29 30  2  0
 30 31  1  0
  8  3  1  0
 31  5  1  0
 18 13  1  0
 26 21  1  0
  1 32  1  0
  1 33  1  0
  1 34  1  0
  4 35  1  0
  7 36  1  0
 10 37  1  0
 10 38  1  0
 11 39  1  0
 11 40  1  0
 12 41  1  0
 12 42  1  0
 14 43  1  0
 14 44  1  0
 15 45  1  0
 15 46  1  0
 17 47  1  0
 17 48  1  0
 18 49  1  0
 18 50  1  0
 22 51  1  0
 23 52  1  0
 26 53  1  0
 30 54  1  0
 31 55  1  0
M  END
>  <energy_abs>  (1) 
84.6612079663542

>  <SMILES>  (1) 
COc1cc2c(cc1OCCCN3CCOCC3)/C(=N/c4ccc(c(c4)Cl)F)/N=CN2

>  <cluster_no>  (1) 
101

>  <fda_drugs_id>  (1) 
2ITY_IRE

>  <initial_conformation_id>  (1) 
201

>  <minimize_method>  (1) 
MMFF

$$$$
