
     RDKit          3D

 61 65  0  0  0  0  0  0  0  0999 V2000
    3.7895   -3.3275    4.5062 C   0  0  0  0  0  0  0  0  0  0  0  0
    2.6451   -2.8581    3.6450 C   0  0  0  0  0  0  0  0  0  0  0  0
    1.3341   -3.1380    4.0690 C   0  0  0  0  0  0  0  0  0  0  0  0
    0.2397   -2.7128    3.3211 C   0  0  0  0  0  0  0  0  0  0  0  0
    0.4432   -1.9879    2.1477 C   0  0  0  0  0  0  0  0  0  0  0  0
    1.7471   -1.7238    1.7063 C   0  0  0  0  0  0  0  0  0  0  0  0
    2.8668   -2.1654    2.4297 C   0  0  0  0  0  0  0  0  0  0  0  0
    4.1810   -1.8842    2.0222 N   0  0  0  0  0  0  0  0  0  0  0  0
    4.7233   -1.1084    1.0022 C   0  0  0  0  0  0  0  0  0  0  0  0
    6.0213   -1.3254    0.7476 N   0  0  0  0  0  0  0  0  0  0  0  0
    6.5866   -0.5931   -0.2273 C   0  0  0  0  0  0  0  0  0  0  0  0
    5.9093    0.3519   -0.9556 C   0  0  0  0  0  0  0  0  0  0  0  0
    4.5823    0.5285   -0.6266 C   0  0  0  0  0  0  0  0  0  0  0  0
    3.9920   -0.1923    0.3527 N   0  0  0  0  0  0  0  0  0  0  0  0
    3.7101    1.5048   -1.2941 C   0  0  0  0  0  0  0  0  0  0  0  0
    3.8117    1.8242   -2.6553 C   0  0  0  0  0  0  0  0  0  0  0  0
    2.9438    2.7526   -3.2306 C   0  0  0  0  0  0  0  0  0  0  0  0
    1.9845    3.3435   -2.4277 C   0  0  0  0  0  0  0  0  0  0  0  0
    1.8392    3.0688   -1.1159 N   0  0  0  0  0  0  0  0  0  0  0  0
    2.7024    2.1650   -0.5879 C   0  0  0  0  0  0  0  0  0  0  0  0
   -0.7490   -1.5476    1.3721 C   0  0  0  0  0  0  0  0  0  0  0  0
   -1.7242   -2.2896    1.3421 O   0  0  0  0  0  0  0  0  0  0  0  0
   -0.6439   -0.2955    0.7908 N   0  0  0  0  0  0  0  0  0  0  0  0
   -1.6105    0.3604   -0.0034 C   0  0  0  0  0  0  0  0  0  0  0  0
   -1.3492    1.6866   -0.3616 C   0  0  0  0  0  0  0  0  0  0  0  0
   -2.2569    2.4177   -1.1420 C   0  0  0  0  0  0  0  0  0  0  0  0
   -3.4354    1.7933   -1.5838 C   0  0  0  0  0  0  0  0  0  0  0  0
   -3.7140    0.4629   -1.2398 C   0  0  0  0  0  0  0  0  0  0  0  0
   -2.7916   -0.2433   -0.4492 C   0  0  0  0  0  0  0  0  0  0  0  0
   -4.9159   -0.1653   -1.6870 N   0  0  0  0  0  0  0  0  0  0  0  0
   -5.9106    0.3909   -2.4664 C   0  0  0  0  0  0  0  0  0  0  0  0
   -6.8656   -0.5873   -2.6423 C   0  0  0  0  0  0  0  0  0  0  0  0
   -6.4960   -1.7312   -1.9919 N   0  0  0  0  0  0  0  0  0  0  0  0
   -5.3374   -1.4543   -1.4335 C   0  0  0  0  0  0  0  0  0  0  0  0
   -8.1405   -0.5255   -3.3900 C   0  0  0  0  0  0  0  0  0  0  0  0
   -1.9554    3.8450   -1.5287 C   0  0  0  0  0  0  0  0  0  0  0  0
   -1.2202    3.9302   -2.6724 F   0  0  0  0  0  0  0  0  0  0  0  0
   -3.0825    4.5772   -1.7632 F   0  0  0  0  0  0  0  0  0  0  0  0
   -1.2652    4.5310   -0.5778 F   0  0  0  0  0  0  0  0  0  0  0  0
    3.4348   -3.7608    5.4480 H   0  0  0  0  0  0  0  0  0  0  0  0
    4.4434   -2.4867    4.7624 H   0  0  0  0  0  0  0  0  0  0  0  0
    4.3667   -4.0961    3.9819 H   0  0  0  0  0  0  0  0  0  0  0  0
    1.1570   -3.6906    4.9897 H   0  0  0  0  0  0  0  0  0  0  0  0
   -0.7694   -2.9424    3.6574 H   0  0  0  0  0  0  0  0  0  0  0  0
    1.8831   -1.2151    0.7578 H   0  0  0  0  0  0  0  0  0  0  0  0
    4.9049   -2.4904    2.3797 H   0  0  0  0  0  0  0  0  0  0  0  0
    7.6384   -0.7948   -0.4083 H   0  0  0  0  0  0  0  0  0  0  0  0
    6.4083    0.9285   -1.7221 H   0  0  0  0  0  0  0  0  0  0  0  0
    4.5523    1.3426   -3.2887 H   0  0  0  0  0  0  0  0  0  0  0  0
    3.0108    3.0041   -4.2835 H   0  0  0  0  0  0  0  0  0  0  0  0
    1.2887    4.0733   -2.8322 H   0  0  0  0  0  0  0  0  0  0  0  0
    2.5589    1.9812    0.4751 H   0  0  0  0  0  0  0  0  0  0  0  0
    0.1832    0.2449    1.0152 H   0  0  0  0  0  0  0  0  0  0  0  0
   -0.4342    2.1751   -0.0285 H   0  0  0  0  0  0  0  0  0  0  0  0
   -4.1184    2.3781   -2.1952 H   0  0  0  0  0  0  0  0  0  0  0  0
   -2.9824   -1.2757   -0.1846 H   0  0  0  0  0  0  0  0  0  0  0  0
   -5.8814    1.4054   -2.8316 H   0  0  0  0  0  0  0  0  0  0  0  0
   -4.7751   -2.1584   -0.8358 H   0  0  0  0  0  0  0  0  0  0  0  0
   -8.2947    0.4635   -3.8335 H   0  0  0  0  0  0  0  0  0  0  0  0
   -8.1451   -1.2661   -4.1955 H   0  0  0  0  0  0  0  0  0  0  0  0
   -8.9821   -0.7352   -2.7226 H   0  0  0  0  0  0  0  0  0  0  0  0
  1  2  1  0
  2  3  2  0
  3  4  1  0
  4  5  2  0
  5  6  1  0
  6  7  2  0
  7  8  1  0
  8  9  1  0
  9 10  2  0
 10 11  1  0
 11 12  2  0
 12 13  1  0
 13 14  2  0
 13 15  1  0
 15 16  2  0
 16 17  1  0
 17 18  2  0
 18 19  1  0
 19 20  2  0
  5 21  1  0
 21 22  2  0
 21 23  1  0
 23 24  1  0
 24 25  2  0
 25 26  1  0
 26 27  2  0
 27 28  1  0
 28 29  2  0
 28 30  1  0
 30 31  1  0
 31 32  2  0
 32 33  1  0
 33 34  2  0
 32 35  1  0
 26 36  1  0
 36 37  1  0
 36 38  1  0
 36 39  1  0
  7  2  1  0
 14  9  1  0
 20 15  1  0
 29 24  1  0
 34 30  1  0
  1 40  1  0
  1 41  1  0
  1 42  1  0
  3 43  1  0
  4 44  1  0
  6 45  1  0
  8 46  1  0
 11 47  1  0
 12 48  1  0
 16 49  1  0
 17 50  1  0
 18 51  1  0
 20 52  1  0
 23 53  1  0
 25 54  1  0
 27 55  1  0
 29 56  1  0
 31 57  1  0
 34 58  1  0
 35 59  1  0
 35 60  1  0
 35 61  1  0
M  END
>  <energy_abs>  (1) 
25.51036116601969

>  <SMILES>  (1) 
Cc1ccc(cc1Nc2nccc(n2)c3cccnc3)C(=O)Nc4cc(cc(c4)n5cc(nc5)C)C(F)(F)F

>  <cluster_no>  (1) 
276

>  <fda_drugs_id>  (1) 
3CS9_NIL

>  <initial_conformation_id>  (1) 
1

>  <minimize_method>  (1) 
MMFF

$$$$
