
     RDKit          3D

 66 70  0  0  0  0  0  0  0  0999 V2000
    6.7389    2.0132    2.2542 C   0  0  0  0  0  0  0  0  0  0  0  0
    5.2373    2.1045    2.1974 C   0  0  0  0  0  0  0  0  0  0  0  0
    4.5586    2.8982    3.1346 C   0  0  0  0  0  0  0  0  0  0  0  0
    3.1652    2.9904    3.1122 C   0  0  0  0  0  0  0  0  0  0  0  0
    2.4265    2.2820    2.1584 C   0  0  0  0  0  0  0  0  0  0  0  0
    3.0939    1.4995    1.2081 C   0  0  0  0  0  0  0  0  0  0  0  0
    4.4917    1.4017    1.2328 C   0  0  0  0  0  0  0  0  0  0  0  0
    5.1349    0.5708    0.2576 C   0  0  0  0  0  0  0  0  0  0  0  0
    5.6920   -0.1278   -0.5452 C   0  0  0  0  0  0  0  0  0  0  0  0
    6.3709   -0.9533   -1.4790 C   0  0  0  0  0  0  0  0  0  0  0  0
    5.8569   -1.9548   -2.2729 C   0  0  0  0  0  0  0  0  0  0  0  0
    6.8354   -2.5365   -3.0423 N   0  0  0  0  0  0  0  0  0  0  0  0
    7.9421   -1.8972   -2.7243 C   0  0  0  0  0  0  0  0  0  0  0  0
    7.7135   -0.9125   -1.7709 N   0  0  0  0  0  0  0  0  0  0  0  0
    8.6402   -0.0632   -1.2214 N   0  0  0  0  0  0  0  0  0  0  0  0
    9.8332   -0.2564   -1.6864 C   0  0  0  0  0  0  0  0  0  0  0  0
   10.2318   -1.2648   -2.6991 C   0  0  0  0  0  0  0  0  0  0  0  0
    9.2680   -2.0552   -3.1874 C   0  0  0  0  0  0  0  0  0  0  0  0
    0.9407    2.4116    2.1760 C   0  0  0  0  0  0  0  0  0  0  0  0
    0.4595    3.4762    2.5461 O   0  0  0  0  0  0  0  0  0  0  0  0
    0.2465    1.2776    1.7914 N   0  0  0  0  0  0  0  0  0  0  0  0
   -1.1530    1.1234    1.6944 C   0  0  0  0  0  0  0  0  0  0  0  0
   -2.0705    2.1344    1.9624 C   0  0  0  0  0  0  0  0  0  0  0  0
   -3.4431    1.8988    1.8367 C   0  0  0  0  0  0  0  0  0  0  0  0
   -3.9337    0.6456    1.4343 C   0  0  0  0  0  0  0  0  0  0  0  0
   -3.0155   -0.3926    1.1652 C   0  0  0  0  0  0  0  0  0  0  0  0
   -1.6334   -0.1299    1.2954 C   0  0  0  0  0  0  0  0  0  0  0  0
   -3.4482   -1.7702    0.7031 C   0  0  0  0  0  0  0  0  0  0  0  0
   -2.4875   -2.7160    0.9482 F   0  0  0  0  0  0  0  0  0  0  0  0
   -3.6755   -1.8439   -0.6372 F   0  0  0  0  0  0  0  0  0  0  0  0
   -4.5629   -2.2482    1.3231 F   0  0  0  0  0  0  0  0  0  0  0  0
   -5.4336    0.4622    1.2937 C   0  0  0  0  0  0  0  0  0  0  0  0
   -5.8238    0.1202   -0.0781 N   0  0  0  0  0  0  0  0  0  0  0  0
   -5.7000    1.2786   -0.9900 C   0  0  0  0  0  0  0  0  0  0  0  0
   -6.1860    0.9545   -2.4217 C   0  0  0  0  0  0  0  0  0  0  0  0
   -7.5805    0.4725   -2.4380 N   0  0  0  0  0  0  0  0  0  0  0  0
   -7.6961   -0.6944   -1.5423 C   0  0  0  0  0  0  0  0  0  0  0  0
   -7.2166   -0.3715   -0.1089 C   0  0  0  0  0  0  0  0  0  0  0  0
   -7.9904    0.1248   -3.7966 C   0  0  0  0  0  0  0  0  0  0  0  0
    7.1541    2.7166    2.9834 H   0  0  0  0  0  0  0  0  0  0  0  0
    7.0450    1.0048    2.5495 H   0  0  0  0  0  0  0  0  0  0  0  0
    7.1783    2.2600    1.2824 H   0  0  0  0  0  0  0  0  0  0  0  0
    5.1104    3.4554    3.8906 H   0  0  0  0  0  0  0  0  0  0  0  0
    2.6559    3.6164    3.8434 H   0  0  0  0  0  0  0  0  0  0  0  0
    2.5422    0.9837    0.4261 H   0  0  0  0  0  0  0  0  0  0  0  0
    4.8296   -2.2915   -2.3305 H   0  0  0  0  0  0  0  0  0  0  0  0
   10.6554    0.3770   -1.3115 H   0  0  0  0  0  0  0  0  0  0  0  0
   11.2677   -1.3253   -3.0039 H   0  0  0  0  0  0  0  0  0  0  0  0
    9.4735   -2.8179   -3.9302 H   0  0  0  0  0  0  0  0  0  0  0  0
    0.7899    0.4446    1.6082 H   0  0  0  0  0  0  0  0  0  0  0  0
   -1.7551    3.1264    2.2709 H   0  0  0  0  0  0  0  0  0  0  0  0
   -4.1302    2.7170    2.0488 H   0  0  0  0  0  0  0  0  0  0  0  0
   -0.9288   -0.9305    1.0724 H   0  0  0  0  0  0  0  0  0  0  0  0
   -5.7257   -0.3308    1.9941 H   0  0  0  0  0  0  0  0  0  0  0  0
   -5.9669    1.3601    1.6336 H   0  0  0  0  0  0  0  0  0  0  0  0
   -6.2723    2.1338   -0.6043 H   0  0  0  0  0  0  0  0  0  0  0  0
   -4.6516    1.5913   -1.0596 H   0  0  0  0  0  0  0  0  0  0  0  0
   -5.5131    0.2094   -2.8679 H   0  0  0  0  0  0  0  0  0  0  0  0
   -6.1085    1.8675   -3.0243 H   0  0  0  0  0  0  0  0  0  0  0  0
   -7.1159   -1.5428   -1.9324 H   0  0  0  0  0  0  0  0  0  0  0  0
   -8.7447   -1.0121   -1.4892 H   0  0  0  0  0  0  0  0  0  0  0  0
   -7.8952    0.3674    0.3397 H   0  0  0  0  0  0  0  0  0  0  0  0
   -7.2912   -1.2896    0.4871 H   0  0  0  0  0  0  0  0  0  0  0  0
   -7.3675   -0.6662   -4.2320 H   0  0  0  0  0  0  0  0  0  0  0  0
   -9.0330   -0.2124   -3.8089 H   0  0  0  0  0  0  0  0  0  0  0  0
   -7.9365    1.0039   -4.4490 H   0  0  0  0  0  0  0  0  0  0  0  0
  1  2  1  0
  2  3  2  0
  3  4  1  0
  4  5  2  0
  5  6  1  0
  6  7  2  0
  7  8  1  0
  8  9  3  0
  9 10  1  0
 10 11  2  0
 11 12  1  0
 12 13  2  0
 13 14  1  0
 14 15  1  0
 15 16  2  0
 16 17  1  0
 17 18  2  0
  5 19  1  0
 19 20  2  0
 19 21  1  0
 21 22  1  0
 22 23  2  0
 23 24  1  0
 24 25  2  0
 25 26  1  0
 26 27  2  0
 26 28  1  0
 28 29  1  0
 28 30  1  0
 28 31  1  0
 25 32  1  0
 32 33  1  0
 33 34  1  0
 34 35  1  0
 35 36  1  0
 36 37  1  0
 37 38  1  0
 36 39  1  0
  7  2  1  0
 14 10  1  0
 18 13  1  0
 27 22  1  0
 38 33  1  0
  1 40  1  0
  1 41  1  0
  1 42  1  0
  3 43  1  0
  4 44  1  0
  6 45  1  0
 11 46  1  0
 16 47  1  0
 17 48  1  0
 18 49  1  0
 21 50  1  0
 23 51  1  0
 24 52  1  0
 27 53  1  0
 32 54  1  0
 32 55  1  0
 34 56  1  0
 34 57  1  0
 35 58  1  0
 35 59  1  0
 37 60  1  0
 37 61  1  0
 38 62  1  0
 38 63  1  0
 39 64  1  0
 39 65  1  0
 39 66  1  0
M  END
>  <energy_abs>  (1) 
141.05176941997314

>  <SMILES>  (1) 
Cc1ccc(cc1C#Cc2cnc3n2nccc3)C(=O)Nc4ccc(c(c4)C(F)(F)F)CN5CCN(CC5)C

>  <cluster_no>  (1) 
37

>  <fda_drugs_id>  (1) 
3OXZ_0LI

>  <initial_conformation_id>  (1) 
263

>  <minimize_method>  (1) 
MMFF

$$$$
