
     RDKit          3D

 58 61  0  0  0  0  0  0  0  0999 V2000
    0.5066   -2.9679   -3.7499 C   0  0  0  0  0  0  0  0  0  0  0  0
    0.4113   -2.2414   -2.5294 O   0  0  0  0  0  0  0  0  0  0  0  0
   -0.7373   -1.5131   -2.3217 C   0  0  0  0  0  0  0  0  0  0  0  0
   -1.7986   -1.4131   -3.2262 C   0  0  0  0  0  0  0  0  0  0  0  0
   -2.9289   -0.6532   -2.9503 C   0  0  0  0  0  0  0  0  0  0  0  0
   -3.0103    0.0297   -1.7301 C   0  0  0  0  0  0  0  0  0  0  0  0
   -1.9414   -0.0769   -0.8037 C   0  0  0  0  0  0  0  0  0  0  0  0
   -0.8058   -0.8297   -1.0970 C   0  0  0  0  0  0  0  0  0  0  0  0
    0.2974   -0.9553   -0.2237 N   0  0  0  0  0  0  0  0  0  0  0  0
    0.5007   -0.3223    0.9813 C   0  0  0  0  0  0  0  0  0  0  0  0
   -0.2385    0.4942    1.5171 O   0  0  0  0  0  0  0  0  0  0  0  0
    1.7895   -0.7282    1.6074 C   0  0  0  0  0  0  0  0  0  0  0  0
    2.1650   -0.2259    2.7958 C   0  0  0  0  0  0  0  0  0  0  0  0
    3.4280   -0.5519    3.5448 C   0  0  0  0  0  0  0  0  0  0  0  0
    4.4499   -1.2557    2.7538 N   0  0  0  0  0  0  0  0  0  0  0  0
    5.3761   -1.9761    3.6435 C   0  0  0  0  0  0  0  0  0  0  0  0
    6.4114   -2.7667    2.8416 C   0  0  0  0  0  0  0  0  0  0  0  0
    7.1810   -1.8649    1.8845 C   0  0  0  0  0  0  0  0  0  0  0  0
    6.2174   -1.0495    1.0309 C   0  0  0  0  0  0  0  0  0  0  0  0
    5.1952   -0.3129    1.8981 C   0  0  0  0  0  0  0  0  0  0  0  0
   -4.1884    0.7795   -1.5279 C   0  0  0  0  0  0  0  0  0  0  0  0
   -5.1705    0.8160   -2.4463 N   0  0  0  0  0  0  0  0  0  0  0  0
   -4.9755    0.1215   -3.5694 C   0  0  0  0  0  0  0  0  0  0  0  0
   -3.8969   -0.6096   -3.8682 N   0  0  0  0  0  0  0  0  0  0  0  0
   -4.3404    1.5077   -0.3172 N   0  0  0  0  0  0  0  0  0  0  0  0
   -5.4912    2.1354    0.2074 C   0  0  0  0  0  0  0  0  0  0  0  0
   -5.3276    3.1678    1.1482 C   0  0  0  0  0  0  0  0  0  0  0  0
   -6.4315    3.7867    1.7407 C   0  0  0  0  0  0  0  0  0  0  0  0
   -7.7128    3.3608    1.4149 C   0  0  0  0  0  0  0  0  0  0  0  0
   -7.8989    2.3171    0.5144 C   0  0  0  0  0  0  0  0  0  0  0  0
   -6.7931    1.6996   -0.0760 C   0  0  0  0  0  0  0  0  0  0  0  0
   -9.4850    1.7664    0.1284 Cl  0  0  0  0  0  0  0  0  0  0  0  0
   -8.7602    3.9654    1.9948 F   0  0  0  0  0  0  0  0  0  0  0  0
    1.4649   -3.4960   -3.7490 H   0  0  0  0  0  0  0  0  0  0  0  0
    0.4997   -2.2926   -4.6117 H   0  0  0  0  0  0  0  0  0  0  0  0
   -0.2870   -3.7185   -3.8255 H   0  0  0  0  0  0  0  0  0  0  0  0
   -1.7755   -1.9276   -4.1820 H   0  0  0  0  0  0  0  0  0  0  0  0
   -2.0274    0.4243    0.1544 H   0  0  0  0  0  0  0  0  0  0  0  0
    1.0225   -1.5723   -0.5764 H   0  0  0  0  0  0  0  0  0  0  0  0
    2.4129   -1.4455    1.0880 H   0  0  0  0  0  0  0  0  0  0  0  0
    1.5030    0.4741    3.3043 H   0  0  0  0  0  0  0  0  0  0  0  0
    3.8406    0.3688    3.9774 H   0  0  0  0  0  0  0  0  0  0  0  0
    3.1149   -1.1754    4.3930 H   0  0  0  0  0  0  0  0  0  0  0  0
    5.8851   -1.2804    4.3237 H   0  0  0  0  0  0  0  0  0  0  0  0
    4.8180   -2.6887    4.2632 H   0  0  0  0  0  0  0  0  0  0  0  0
    5.9076   -3.5581    2.2721 H   0  0  0  0  0  0  0  0  0  0  0  0
    7.1102   -3.2614    3.5256 H   0  0  0  0  0  0  0  0  0  0  0  0
    7.8247   -1.1872    2.4585 H   0  0  0  0  0  0  0  0  0  0  0  0
    7.8356   -2.4662    1.2442 H   0  0  0  0  0  0  0  0  0  0  0  0
    5.6950   -1.7136    0.3306 H   0  0  0  0  0  0  0  0  0  0  0  0
    6.7796   -0.3276    0.4277 H   0  0  0  0  0  0  0  0  0  0  0  0
    5.7089    0.4435    2.5064 H   0  0  0  0  0  0  0  0  0  0  0  0
    4.5126    0.2230    1.2289 H   0  0  0  0  0  0  0  0  0  0  0  0
   -5.7674    0.1546   -4.3099 H   0  0  0  0  0  0  0  0  0  0  0  0
   -3.4982    2.0471   -0.1397 H   0  0  0  0  0  0  0  0  0  0  0  0
   -4.3312    3.5032    1.4284 H   0  0  0  0  0  0  0  0  0  0  0  0
   -6.2982    4.5910    2.4573 H   0  0  0  0  0  0  0  0  0  0  0  0
   -6.9570    0.8668   -0.7537 H   0  0  0  0  0  0  0  0  0  0  0  0
  1  2  1  0
  2  3  1  0
  3  4  2  0
  4  5  1  0
  5  6  2  0
  6  7  1  0
  7  8  2  0
  8  9  1  0
  9 10  1  0
 10 11  2  0
 10 12  1  0
 12 13  2  0
 13 14  1  0
 14 15  1  0
 15 16  1  0
 16 17  1  0
 17 18  1  0
 18 19  1  0
 19 20  1  0
  6 21  1  0
 21 22  2  0
 22 23  1  0
 23 24  2  0
 21 25  1  0
 25 26  1  0
 26 27  2  0
 27 28  1  0
 28 29  2  0
 29 30  1  0
 30 31  2  0
 30 32  1  0
 29 33  1  0
  8  3  1  0
 24  5  1  0
 20 15  1  0
 31 26  1  0
  1 34  1  0
  1 35  1  0
  1 36  1  0
  4 37  1  0
  7 38  1  0
  9 39  1  0
 12 40  1  0
 13 41  1  0
 14 42  1  0
 14 43  1  0
 16 44  1  0
 16 45  1  0
 17 46  1  0
 17 47  1  0
 18 48  1  0
 18 49  1  0
 19 50  1  0
 19 51  1  0
 20 52  1  0
 20 53  1  0
 23 54  1  0
 25 55  1  0
 27 56  1  0
 28 57  1  0
 31 58  1  0
M  END
>  <energy_abs>  (1) 
-19.67914936156667

>  <SMILES>  (1) 
COc1cc2c(cc1NC(=O)/C=C/CN3CCCCC3)c(ncn2)Nc4ccc(c(c4)Cl)F

>  <cluster_no>  (1) 
110

>  <fda_drugs_id>  (1) 
4I24_1C9

>  <initial_conformation_id>  (1) 
195

>  <minimize_method>  (1) 
MMFF

$$$$
