
     RDKit          3D

 73 81  0  0  0  0  0  0  0  0999 V2000
    0.4717   -1.8324   -2.5354 C   0  0  0  0  0  0  0  0  0  0  0  0
   -0.0609   -0.8789   -1.4368 C   0  0  1  0  0  0  0  0  0  0  0  0
    1.0814   -0.5401   -0.4225 C   0  0  1  0  0  0  0  0  0  0  0  0
    1.8638    0.6717   -0.9840 C   0  0  1  0  0  0  0  0  0  0  0  0
    0.9281    1.8847   -0.9970 C   0  0  0  0  0  0  0  0  0  0  0  0
   -0.3897    1.5528   -1.7110 C   0  0  1  0  0  0  0  0  0  0  0  0
   -0.4610    0.2436   -2.2648 O   0  0  0  0  0  0  0  0  0  0  0  0
   -1.6047    1.8489   -0.9582 N   0  0  0  0  0  0  0  0  0  0  0  0
   -2.1438    3.1179   -0.7958 C   0  0  0  0  0  0  0  0  0  0  0  0
   -1.6625    4.3806   -1.1933 C   0  0  0  0  0  0  0  0  0  0  0  0
   -2.4369    5.5092   -0.9121 C   0  0  0  0  0  0  0  0  0  0  0  0
   -3.6536    5.3873   -0.2551 C   0  0  0  0  0  0  0  0  0  0  0  0
   -4.1248    4.1297    0.1422 C   0  0  0  0  0  0  0  0  0  0  0  0
   -3.3699    2.9665   -0.1279 C   0  0  0  0  0  0  0  0  0  0  0  0
   -3.5594    1.5701    0.1173 C   0  0  0  0  0  0  0  0  0  0  0  0
   -2.4444    0.9336   -0.4029 C   0  0  0  0  0  0  0  0  0  0  0  0
   -2.2905   -0.6169   -0.3222 C   0  0  0  0  0  0  0  0  0  0  0  0
   -1.2624   -1.4109   -0.7641 N   0  0  0  0  0  0  0  0  0  0  0  0
   -1.5141   -2.7194   -0.3528 C   0  0  0  0  0  0  0  0  0  0  0  0
   -0.7519   -3.9018   -0.4241 C   0  0  0  0  0  0  0  0  0  0  0  0
   -1.2969   -5.0957    0.0573 C   0  0  0  0  0  0  0  0  0  0  0  0
   -2.5653   -5.1235    0.6169 C   0  0  0  0  0  0  0  0  0  0  0  0
   -3.3134   -3.9499    0.7256 C   0  0  0  0  0  0  0  0  0  0  0  0
   -2.7870   -2.7292    0.2492 C   0  0  0  0  0  0  0  0  0  0  0  0
   -3.2600   -1.3883    0.2833 C   0  0  0  0  0  0  0  0  0  0  0  0
   -4.3826   -0.7087    0.7845 C   0  0  0  0  0  0  0  0  0  0  0  0
   -4.5080    0.7129    0.6985 C   0  0  0  0  0  0  0  0  0  0  0  0
   -5.7848    1.0695    1.3338 C   0  0  0  0  0  0  0  0  0  0  0  0
   -6.2624    2.1757    1.4846 O   0  0  0  0  0  0  0  0  0  0  0  0
   -6.3719   -0.1022    1.7602 N   0  0  0  0  0  0  0  0  0  0  0  0
   -5.5878   -1.2684    1.4789 C   0  0  0  0  0  0  0  0  0  0  0  0
    3.1658    0.8922   -0.3048 N   0  0  0  0  0  0  0  0  0  0  0  0
    3.2057    1.7450    0.8870 C   0  0  0  0  0  0  0  0  0  0  0  0
    4.1680   -0.0401   -0.6093 C   0  0  0  0  0  0  0  0  0  0  0  0
    3.9802   -0.9908   -1.3715 O   0  0  0  0  0  0  0  0  0  0  0  0
    5.5144    0.1017   -0.0179 C   0  0  0  0  0  0  0  0  0  0  0  0
    6.0713   -0.9923    0.6515 C   0  0  0  0  0  0  0  0  0  0  0  0
    7.3600   -0.8974    1.1758 C   0  0  0  0  0  0  0  0  0  0  0  0
    8.0980    0.2767    1.0075 C   0  0  0  0  0  0  0  0  0  0  0  0
    7.5503    1.3586    0.3140 C   0  0  0  0  0  0  0  0  0  0  0  0
    6.2593    1.2720   -0.2100 C   0  0  0  0  0  0  0  0  0  0  0  0
    0.5598   -0.1303    0.8659 O   0  0  0  0  0  0  0  0  0  0  0  0
    0.8678   -1.0433    1.9102 C   0  0  0  0  0  0  0  0  0  0  0  0
    1.0708   -1.2852   -3.2775 H   0  0  0  0  0  0  0  0  0  0  0  0
   -0.3507   -2.2972   -3.0950 H   0  0  0  0  0  0  0  0  0  0  0  0
    1.1216   -2.6153   -2.1459 H   0  0  0  0  0  0  0  0  0  0  0  0
    1.7268   -1.4146   -0.2831 H   0  0  0  0  0  0  0  0  0  0  0  0
    2.1319    0.4540   -2.0274 H   0  0  0  0  0  0  0  0  0  0  0  0
    0.7208    2.2559    0.0170 H   0  0  0  0  0  0  0  0  0  0  0  0
    1.4238    2.7231   -1.5103 H   0  0  0  0  0  0  0  0  0  0  0  0
   -0.4523    2.2094   -2.5899 H   0  0  0  0  0  0  0  0  0  0  0  0
   -0.7185    4.4943   -1.7140 H   0  0  0  0  0  0  0  0  0  0  0  0
   -2.0849    6.4944   -1.2139 H   0  0  0  0  0  0  0  0  0  0  0  0
   -4.2504    6.2725   -0.0430 H   0  0  0  0  0  0  0  0  0  0  0  0
   -5.0808    4.0622    0.6525 H   0  0  0  0  0  0  0  0  0  0  0  0
    0.2523   -3.9228   -0.8296 H   0  0  0  0  0  0  0  0  0  0  0  0
   -0.7170   -6.0146   -0.0092 H   0  0  0  0  0  0  0  0  0  0  0  0
   -2.9766   -6.0585    0.9822 H   0  0  0  0  0  0  0  0  0  0  0  0
   -4.2947   -3.9818    1.1896 H   0  0  0  0  0  0  0  0  0  0  0  0
   -7.2585   -0.0895    2.2456 H   0  0  0  0  0  0  0  0  0  0  0  0
   -6.1651   -1.9275    0.8290 H   0  0  0  0  0  0  0  0  0  0  0  0
   -5.3303   -1.7624    2.4173 H   0  0  0  0  0  0  0  0  0  0  0  0
    4.1901    1.7807    1.3573 H   0  0  0  0  0  0  0  0  0  0  0  0
    2.5021    1.3603    1.6291 H   0  0  0  0  0  0  0  0  0  0  0  0
    2.9227    2.7679    0.6107 H   0  0  0  0  0  0  0  0  0  0  0  0
    5.5001   -1.9116    0.7698 H   0  0  0  0  0  0  0  0  0  0  0  0
    7.7906   -1.7417    1.7083 H   0  0  0  0  0  0  0  0  0  0  0  0
    9.1050    0.3461    1.4125 H   0  0  0  0  0  0  0  0  0  0  0  0
    8.1334    2.2662    0.1749 H   0  0  0  0  0  0  0  0  0  0  0  0
    5.8438    2.1108   -0.7599 H   0  0  0  0  0  0  0  0  0  0  0  0
    1.9509   -1.1623    2.0031 H   0  0  0  0  0  0  0  0  0  0  0  0
    0.4855   -0.6334    2.8481 H   0  0  0  0  0  0  0  0  0  0  0  0
    0.3946   -2.0111    1.7369 H   0  0  0  0  0  0  0  0  0  0  0  0
  2  1  1  6
  2  3  1  0
  3  4  1  0
  4  5  1  0
  5  6  1  0
  6  7  1  0
  6  8  1  0
  8  9  1  0
  9 10  2  0
 10 11  1  0
 11 12  2  0
 12 13  1  0
 13 14  2  0
 14 15  1  0
 15 16  2  0
 16 17  1  0
 17 18  1  0
 18 19  1  0
 19 20  2  0
 20 21  1  0
 21 22  2  0
 22 23  1  0
 23 24  2  0
 24 25  1  0
 25 26  1  0
 26 27  2  0
 27 28  1  0
 28 29  2  0
 28 30  1  0
 30 31  1  0
  4 32  1  0
 32 33  1  0
 32 34  1  0
 34 35  2  0
 34 36  1  0
 36 37  2  0
 37 38  1  0
 38 39  2  0
 39 40  1  0
 40 41  2  0
  3 42  1  0
 42 43  1  0
  7  2  1  0
 18  2  1  0
 16  8  1  0
 14  9  1  0
 27 15  1  0
 25 17  2  0
 24 19  1  0
 31 26  1  0
 41 36  1  0
  1 44  1  0
  1 45  1  0
  1 46  1  0
  3 47  1  1
  4 48  1  6
  5 49  1  0
  5 50  1  0
  6 51  1  6
 10 52  1  0
 11 53  1  0
 12 54  1  0
 13 55  1  0
 20 56  1  0
 21 57  1  0
 22 58  1  0
 23 59  1  0
 30 60  1  0
 31 61  1  0
 31 62  1  0
 33 63  1  0
 33 64  1  0
 33 65  1  0
 37 66  1  0
 38 67  1  0
 39 68  1  0
 40 69  1  0
 41 70  1  0
 43 71  1  0
 43 72  1  0
 43 73  1  0
M  END
>  <energy_abs>  (1) 
130.16066546809063

>  <SMILES>  (1) 
C[C@@]12[C@@H]([C@@H](C[C@@H](O1)n3c4ccccc4c5c3c6n2c7ccccc7c6c8c5C(=O)NC8)N(C)C(=O)c9ccccc9)OC

>  <cluster_no>  (1) 
7

>  <fda_drugs_id>  (1) 
4NCT_2K2

>  <initial_conformation_id>  (1) 
18

>  <minimize_method>  (1) 
MMFF

$$$$
