
     RDKit          3D

 53 57  0  0  0  0  0  0  0  0999 V2000
    2.4546   -3.9148   -0.4470 C   0  0  0  0  0  0  0  0  0  0  0  0
    1.4558   -2.9141   -0.7866 C   0  0  0  0  0  0  0  0  0  0  0  0
    1.5052   -1.6919   -0.2114 C   0  0  0  0  0  0  0  0  0  0  0  0
    2.5351   -1.4275    0.7172 N   0  0  0  0  0  0  0  0  0  0  0  0
    3.4994   -2.3812    1.0579 C   0  0  0  0  0  0  0  0  0  0  0  0
    3.4321   -3.6577    0.4397 C   0  0  0  0  0  0  0  0  0  0  0  0
    4.3349   -1.8828    1.9367 N   0  0  0  0  0  0  0  0  0  0  0  0
    3.8805   -0.6179    2.1221 C   0  0  0  0  0  0  0  0  0  0  0  0
    2.7978   -0.2890    1.4179 N   0  0  0  0  0  0  0  0  0  0  0  0
    4.4662    0.2968    2.9467 N   0  0  0  0  0  0  0  0  0  0  0  0
    5.5806    0.0745    3.7061 C   0  0  0  0  0  0  0  0  0  0  0  0
    6.2144   -0.9592    3.8519 O   0  0  0  0  0  0  0  0  0  0  0  0
    6.0129    1.2970    4.4450 C   0  0  0  0  0  0  0  0  0  0  0  0
    7.4587    1.7358    4.3776 C   0  0  0  0  0  0  0  0  0  0  0  0
    6.4009    2.5533    3.6937 C   0  0  0  0  0  0  0  0  0  0  0  0
    0.4764   -0.6895   -0.5451 C   0  0  0  0  0  0  0  0  0  0  0  0
    0.2998   -0.2537   -1.8657 C   0  0  0  0  0  0  0  0  0  0  0  0
   -0.6899    0.6825   -2.1812 C   0  0  0  0  0  0  0  0  0  0  0  0
   -1.5252    1.1970   -1.1822 C   0  0  0  0  0  0  0  0  0  0  0  0
   -1.3437    0.7657    0.1393 C   0  0  0  0  0  0  0  0  0  0  0  0
   -0.3525   -0.1670    0.4549 C   0  0  0  0  0  0  0  0  0  0  0  0
   -2.6025    2.2081   -1.5145 C   0  0  0  0  0  0  0  0  0  0  0  0
   -3.9675    1.7100   -1.2232 N   0  0  0  0  0  0  0  0  0  0  0  0
   -4.9167    2.8418   -1.2397 C   0  0  0  0  0  0  0  0  0  0  0  0
   -6.2949    2.4409   -0.7419 C   0  0  0  0  0  0  0  0  0  0  0  0
   -6.9786    1.1839   -1.7834 S   0  0  0  0  0  6  0  0  0  0  0  0
   -7.1380    1.7337   -3.1172 O   0  0  0  0  0  0  0  0  0  0  0  0
   -8.1091    0.5910   -1.0919 O   0  0  0  0  0  0  0  0  0  0  0  0
   -5.6692   -0.0063   -1.8216 C   0  0  0  0  0  0  0  0  0  0  0  0
   -4.3594    0.6664   -2.1967 C   0  0  0  0  0  0  0  0  0  0  0  0
    2.3866   -4.8859   -0.9294 H   0  0  0  0  0  0  0  0  0  0  0  0
    0.6814   -3.1942   -1.4953 H   0  0  0  0  0  0  0  0  0  0  0  0
    4.1789   -4.4001    0.7001 H   0  0  0  0  0  0  0  0  0  0  0  0
    4.0231    1.2006    2.9397 H   0  0  0  0  0  0  0  0  0  0  0  0
    5.5285    1.4136    5.4090 H   0  0  0  0  0  0  0  0  0  0  0  0
    8.1380    1.1417    3.7709 H   0  0  0  0  0  0  0  0  0  0  0  0
    7.9088    2.1289    5.2825 H   0  0  0  0  0  0  0  0  0  0  0  0
    6.1432    3.5133    4.1298 H   0  0  0  0  0  0  0  0  0  0  0  0
    6.3945    2.5432    2.6094 H   0  0  0  0  0  0  0  0  0  0  0  0
    0.9369   -0.6333   -2.6610 H   0  0  0  0  0  0  0  0  0  0  0  0
   -0.8041    1.0031   -3.2141 H   0  0  0  0  0  0  0  0  0  0  0  0
   -1.9811    1.1539    0.9306 H   0  0  0  0  0  0  0  0  0  0  0  0
   -0.2363   -0.4817    1.4903 H   0  0  0  0  0  0  0  0  0  0  0  0
   -2.3871    3.0966   -0.9017 H   0  0  0  0  0  0  0  0  0  0  0  0
   -2.5215    2.5335   -2.5617 H   0  0  0  0  0  0  0  0  0  0  0  0
   -4.9789    3.2798   -2.2448 H   0  0  0  0  0  0  0  0  0  0  0  0
   -4.5530    3.6317   -0.5694 H   0  0  0  0  0  0  0  0  0  0  0  0
   -6.9821    3.2929   -0.7584 H   0  0  0  0  0  0  0  0  0  0  0  0
   -6.2550    2.0454    0.2784 H   0  0  0  0  0  0  0  0  0  0  0  0
   -5.6123   -0.4746   -0.8331 H   0  0  0  0  0  0  0  0  0  0  0  0
   -5.9414   -0.7722   -2.5551 H   0  0  0  0  0  0  0  0  0  0  0  0
   -4.4196    1.0886   -3.2091 H   0  0  0  0  0  0  0  0  0  0  0  0
   -3.6017   -0.1254   -2.2287 H   0  0  0  0  0  0  0  0  0  0  0  0
  1  2  1  0
  2  3  2  0
  3  4  1  0
  4  5  1  0
  5  6  1  0
  5  7  2  0
  7  8  1  0
  8  9  2  0
  8 10  1  0
 10 11  1  0
 11 12  2  0
 11 13  1  0
 13 14  1  0
 14 15  1  0
  3 16  1  0
 16 17  2  0
 17 18  1  0
 18 19  2  0
 19 20  1  0
 20 21  2  0
 19 22  1  0
 22 23  1  0
 23 24  1  0
 24 25  1  0
 25 26  1  0
 26 27  2  0
 26 28  2  0
 26 29  1  0
 29 30  1  0
  6  1  2  0
  9  4  1  0
 15 13  1  0
 21 16  1  0
 30 23  1  0
  1 31  1  0
  2 32  1  0
  6 33  1  0
 10 34  1  0
 13 35  1  0
 14 36  1  0
 14 37  1  0
 15 38  1  0
 15 39  1  0
 17 40  1  0
 18 41  1  0
 20 42  1  0
 21 43  1  0
 22 44  1  0
 22 45  1  0
 24 46  1  0
 24 47  1  0
 25 48  1  0
 25 49  1  0
 29 50  1  0
 29 51  1  0
 30 52  1  0
 30 53  1  0
M  END
>  <energy_abs>  (1) 
-11.620880964168087

>  <SMILES>  (1) 
c1cc(n2c(c1)nc(n2)NC(=O)C3CC3)c4ccc(cc4)CN5CCS(=O)(=O)CC5

>  <cluster_no>  (1) 
116

>  <fda_drugs_id>  (1) 
4P7E_2HB

>  <initial_conformation_id>  (1) 
178

>  <minimize_method>  (1) 
MMFF

$$$$
