
     RDKit          3D

 70 73  0  0  0  0  0  0  0  0999 V2000
    7.6038   -3.9844   -0.4717 C   0  0  0  0  0  0  0  0  0  0  0  0
    7.0441   -2.7278   -0.0268 N   0  0  0  0  0  0  0  0  0  0  0  0
    5.7515   -2.3361   -0.2369 C   0  0  0  0  0  0  0  0  0  0  0  0
    5.5769   -1.0852    0.3256 C   0  0  0  0  0  0  0  0  0  0  0  0
    6.8273   -0.7193    0.9249 C   0  0  0  0  0  0  0  0  0  0  0  0
    7.7304   -1.7601    0.6756 C   0  0  0  0  0  0  0  0  0  0  0  0
    9.0629   -1.7184    1.1184 C   0  0  0  0  0  0  0  0  0  0  0  0
    9.4832   -0.5988    1.8404 C   0  0  0  0  0  0  0  0  0  0  0  0
    8.6046    0.4423    2.1178 C   0  0  0  0  0  0  0  0  0  0  0  0
    7.2798    0.3927    1.6706 C   0  0  0  0  0  0  0  0  0  0  0  0
    4.3097   -0.3699    0.2540 C   0  0  0  0  0  0  0  0  0  0  0  0
    4.2742    0.9888    0.0427 C   0  0  0  0  0  0  0  0  0  0  0  0
    3.0215    1.5382   -0.0171 C   0  0  0  0  0  0  0  0  0  0  0  0
    1.8945    0.8211    0.1164 N   0  0  0  0  0  0  0  0  0  0  0  0
    2.0118   -0.4980    0.3120 C   0  0  0  0  0  0  0  0  0  0  0  0
    3.1960   -1.1241    0.3796 N   0  0  0  0  0  0  0  0  0  0  0  0
    0.9009   -1.3163    0.4569 N   0  0  0  0  0  0  0  0  0  0  0  0
   -0.4913   -1.1189    0.4425 C   0  0  0  0  0  0  0  0  0  0  0  0
   -1.0952    0.1335    0.2606 C   0  0  0  0  0  0  0  0  0  0  0  0
   -2.4857    0.2595    0.2482 C   0  0  0  0  0  0  0  0  0  0  0  0
   -3.3065   -0.8792    0.4248 C   0  0  0  0  0  0  0  0  0  0  0  0
   -2.7118   -2.1334    0.6044 C   0  0  0  0  0  0  0  0  0  0  0  0
   -1.3191   -2.2561    0.6200 C   0  0  0  0  0  0  0  0  0  0  0  0
   -0.6414   -3.4444    0.7912 O   0  0  0  0  0  0  0  0  0  0  0  0
   -1.4165   -4.5988    1.0857 C   0  0  0  0  0  0  0  0  0  0  0  0
   -4.7164   -0.6971    0.3960 N   0  0  0  0  0  0  0  0  0  0  0  0
   -5.3821   -1.1867    1.6047 C   0  0  0  0  0  0  0  0  0  0  0  0
   -5.3019   -1.1503   -0.8849 C   0  0  0  0  0  0  0  0  0  0  0  0
   -6.4898   -0.2472   -1.3061 C   0  0  0  0  0  0  0  0  0  0  0  0
   -6.1577    1.1846   -1.5077 N   0  0  0  0  0  0  0  0  0  0  0  0
   -5.3268    1.3738   -2.7023 C   0  0  0  0  0  0  0  0  0  0  0  0
   -7.3893    1.9673   -1.6394 C   0  0  0  0  0  0  0  0  0  0  0  0
   -3.1804    1.4769    0.0722 N   0  0  0  0  0  0  0  0  0  0  0  0
   -2.6758    2.7429   -0.0841 C   0  0  0  0  0  0  0  0  0  0  0  0
   -1.5000    3.0791   -0.1270 O   0  0  0  0  0  0  0  0  0  0  0  0
   -3.7661    3.7554   -0.2057 C   0  0  0  0  0  0  0  0  0  0  0  0
   -3.4848    5.0520   -0.3896 C   0  0  0  0  0  0  0  0  0  0  0  0
    7.9886   -4.5211    0.3995 H   0  0  0  0  0  0  0  0  0  0  0  0
    8.4069   -3.7718   -1.1823 H   0  0  0  0  0  0  0  0  0  0  0  0
    6.8271   -4.5810   -0.9574 H   0  0  0  0  0  0  0  0  0  0  0  0
    5.0498   -2.9647   -0.7711 H   0  0  0  0  0  0  0  0  0  0  0  0
    9.7526   -2.5315    0.9161 H   0  0  0  0  0  0  0  0  0  0  0  0
   10.5091   -0.5464    2.1974 H   0  0  0  0  0  0  0  0  0  0  0  0
    8.9456    1.3001    2.6920 H   0  0  0  0  0  0  0  0  0  0  0  0
    6.6046    1.2075    1.9141 H   0  0  0  0  0  0  0  0  0  0  0  0
    5.1616    1.5897   -0.0899 H   0  0  0  0  0  0  0  0  0  0  0  0
    2.8741    2.6013   -0.1829 H   0  0  0  0  0  0  0  0  0  0  0  0
    1.1847   -2.2769    0.6008 H   0  0  0  0  0  0  0  0  0  0  0  0
   -0.4768    1.0124    0.1259 H   0  0  0  0  0  0  0  0  0  0  0  0
   -3.3511   -2.9990    0.7178 H   0  0  0  0  0  0  0  0  0  0  0  0
   -2.0607   -4.8654    0.2416 H   0  0  0  0  0  0  0  0  0  0  0  0
   -0.7256   -5.4307    1.2516 H   0  0  0  0  0  0  0  0  0  0  0  0
   -1.9994   -4.4634    2.0031 H   0  0  0  0  0  0  0  0  0  0  0  0
   -4.8871   -0.8083    2.5067 H   0  0  0  0  0  0  0  0  0  0  0  0
   -6.4149   -0.8242    1.6333 H   0  0  0  0  0  0  0  0  0  0  0  0
   -5.4093   -2.2809    1.6476 H   0  0  0  0  0  0  0  0  0  0  0  0
   -5.6552   -2.1852   -0.7896 H   0  0  0  0  0  0  0  0  0  0  0  0
   -4.5555   -1.1536   -1.6894 H   0  0  0  0  0  0  0  0  0  0  0  0
   -6.9430   -0.6619   -2.2163 H   0  0  0  0  0  0  0  0  0  0  0  0
   -7.2515   -0.3223   -0.5193 H   0  0  0  0  0  0  0  0  0  0  0  0
   -4.3590    0.8739   -2.5991 H   0  0  0  0  0  0  0  0  0  0  0  0
   -5.8156    0.9974   -3.6080 H   0  0  0  0  0  0  0  0  0  0  0  0
   -5.1064    2.4368   -2.8510 H   0  0  0  0  0  0  0  0  0  0  0  0
   -7.9967    1.8827   -0.7314 H   0  0  0  0  0  0  0  0  0  0  0  0
   -7.9959    1.6456   -2.4938 H   0  0  0  0  0  0  0  0  0  0  0  0
   -7.1573    3.0315   -1.7603 H   0  0  0  0  0  0  0  0  0  0  0  0
   -4.1921    1.3350    0.0600 H   0  0  0  0  0  0  0  0  0  0  0  0
   -4.7925    3.4171   -0.1382 H   0  0  0  0  0  0  0  0  0  0  0  0
   -4.2769    5.7869   -0.4750 H   0  0  0  0  0  0  0  0  0  0  0  0
   -2.4584    5.4034   -0.4547 H   0  0  0  0  0  0  0  0  0  0  0  0
  1  2  1  0
  2  3  1  0
  3  4  2  0
  4  5  1  0
  5  6  2  0
  6  7  1  0
  7  8  2  0
  8  9  1  0
  9 10  2  0
  4 11  1  0
 11 12  2  0
 12 13  1  0
 13 14  2  0
 14 15  1  0
 15 16  2  0
 15 17  1  0
 17 18  1  0
 18 19  2  0
 19 20  1  0
 20 21  2  0
 21 22  1  0
 22 23  2  0
 23 24  1  0
 24 25  1  0
 21 26  1  0
 26 27  1  0
 26 28  1  0
 28 29  1  0
 29 30  1  0
 30 31  1  0
 30 32  1  0
 20 33  1  0
 33 34  1  0
 34 35  2  0
 34 36  1  0
 36 37  2  3
  6  2  1  0
 10  5  1  0
 16 11  1  0
 23 18  1  0
  1 38  1  0
  1 39  1  0
  1 40  1  0
  3 41  1  0
  7 42  1  0
  8 43  1  0
  9 44  1  0
 10 45  1  0
 12 46  1  0
 13 47  1  0
 17 48  1  0
 19 49  1  0
 22 50  1  0
 25 51  1  0
 25 52  1  0
 25 53  1  0
 27 54  1  0
 27 55  1  0
 27 56  1  0
 28 57  1  0
 28 58  1  0
 29 59  1  0
 29 60  1  0
 31 61  1  0
 31 62  1  0
 31 63  1  0
 32 64  1  0
 32 65  1  0
 32 66  1  0
 33 67  1  0
 36 68  1  0
 37 69  1  0
 37 70  1  0
M  END
>  <energy_abs>  (1) 
18.542362933288764

>  <SMILES>  (1) 
Cn1cc(c2c1cccc2)c3ccnc(n3)Nc4cc(c(cc4OC)N(C)CCN(C)C)NC(=O)C=C

>  <cluster_no>  (1) 
174

>  <fda_drugs_id>  (1) 
4ZAU_YY3

>  <initial_conformation_id>  (1) 
67

>  <minimize_method>  (1) 
MMFF

$$$$
