
     RDKit          3D

 63 67  0  0  0  0  0  0  0  0999 V2000
   -0.5973   -1.0473    1.9423 C   0  0  0  0  0  0  0  0  0  0  0  0
   -0.3112   -0.8324    0.5617 O   0  0  0  0  0  0  0  0  0  0  0  0
   -0.2116    0.5205    0.3135 C   0  0  0  0  0  0  0  0  0  0  0  0
   -1.3661    1.2474   -0.0376 C   0  0  0  0  0  0  0  0  0  0  0  0
   -1.2636    2.6156   -0.3111 C   0  0  0  0  0  0  0  0  0  0  0  0
   -0.0181    3.2439   -0.2837 C   0  0  0  0  0  0  0  0  0  0  0  0
    1.1196    2.4958    0.0243 C   0  0  0  0  0  0  0  0  0  0  0  0
    1.0556    1.1261    0.3294 C   0  0  0  0  0  0  0  0  0  0  0  0
    2.2105    0.3552    0.6430 N   0  0  0  0  0  0  0  0  0  0  0  0
    3.3748    0.9393    0.6177 C   0  0  0  0  0  0  0  0  0  0  0  0
    3.5171    2.2725    0.3305 N   0  0  0  0  0  0  0  0  0  0  0  0
    2.4581    3.0970    0.0402 C   0  0  0  0  0  0  0  0  0  0  0  0
    2.6932    4.3583   -0.2068 N   0  0  0  0  0  0  0  0  0  0  0  0
    4.1709    4.4668   -0.0506 C   0  0  0  0  0  0  0  0  0  0  0  0
    4.7201    3.0586    0.2370 C   0  0  0  0  0  0  0  0  0  0  0  0
    4.3704    0.0321    0.9282 N   0  0  0  0  0  0  0  0  0  0  0  0
    5.7566    0.0868    1.0061 C   0  0  0  0  0  0  0  0  0  0  0  0
    6.4678    1.0079    0.6284 O   0  0  0  0  0  0  0  0  0  0  0  0
    6.4131   -1.1201    1.5417 C   0  0  0  0  0  0  0  0  0  0  0  0
    5.8556   -1.9557    2.4830 C   0  0  0  0  0  0  0  0  0  0  0  0
    6.4726   -3.0587    2.9617 N   0  0  0  0  0  0  0  0  0  0  0  0
    7.7055   -3.3046    2.5049 C   0  0  0  0  0  0  0  0  0  0  0  0
    8.3397   -2.5583    1.5944 N   0  0  0  0  0  0  0  0  0  0  0  0
    7.6836   -1.4663    1.1392 C   0  0  0  0  0  0  0  0  0  0  0  0
    8.3408   -4.4366    2.9606 N   0  0  0  0  0  0  0  0  0  0  0  0
   -2.5517    0.5568   -0.0523 O   0  0  0  0  0  0  0  0  0  0  0  0
   -3.5375    1.0323   -0.9707 C   0  0  0  0  0  0  0  0  0  0  0  0
   -4.5664   -0.0778   -1.1769 C   0  0  0  0  0  0  0  0  0  0  0  0
   -5.6454    0.3554   -2.1723 C   0  0  0  0  0  0  0  0  0  0  0  0
   -6.7029   -0.6543   -2.3419 N   0  0  0  0  0  0  0  0  0  0  0  0
   -6.2259   -1.8381   -3.0947 C   0  0  0  0  0  0  0  0  0  0  0  0
   -7.3640   -2.8393   -3.3548 C   0  0  0  0  0  0  0  0  0  0  0  0
   -8.4421   -2.2269   -4.0736 O   0  0  0  0  0  0  0  0  0  0  0  0
   -8.9518   -1.1138   -3.3296 C   0  0  0  0  0  0  0  0  0  0  0  0
   -7.8536   -0.0702   -3.0698 C   0  0  0  0  0  0  0  0  0  0  0  0
   -0.6035   -2.1269    2.1186 H   0  0  0  0  0  0  0  0  0  0  0  0
   -1.5842   -0.6553    2.2108 H   0  0  0  0  0  0  0  0  0  0  0  0
    0.1732   -0.6071    2.5854 H   0  0  0  0  0  0  0  0  0  0  0  0
   -2.1386    3.2157   -0.5414 H   0  0  0  0  0  0  0  0  0  0  0  0
    0.0664    4.3057   -0.5042 H   0  0  0  0  0  0  0  0  0  0  0  0
    4.3976    5.1509    0.7745 H   0  0  0  0  0  0  0  0  0  0  0  0
    4.6100    4.8793   -0.9650 H   0  0  0  0  0  0  0  0  0  0  0  0
    5.2870    3.0653    1.1727 H   0  0  0  0  0  0  0  0  0  0  0  0
    5.3486    2.7363   -0.5988 H   0  0  0  0  0  0  0  0  0  0  0  0
    3.9267   -0.8625    1.0951 H   0  0  0  0  0  0  0  0  0  0  0  0
    4.8785   -1.7718    2.9193 H   0  0  0  0  0  0  0  0  0  0  0  0
    8.2307   -0.8732    0.4093 H   0  0  0  0  0  0  0  0  0  0  0  0
    7.6594   -5.1215    3.2534 H   0  0  0  0  0  0  0  0  0  0  0  0
    9.0399   -4.7333    2.2939 H   0  0  0  0  0  0  0  0  0  0  0  0
   -4.0290    1.9179   -0.5527 H   0  0  0  0  0  0  0  0  0  0  0  0
   -3.0789    1.2829   -1.9354 H   0  0  0  0  0  0  0  0  0  0  0  0
   -5.0184   -0.3383   -0.2116 H   0  0  0  0  0  0  0  0  0  0  0  0
   -4.0436   -0.9773   -1.5201 H   0  0  0  0  0  0  0  0  0  0  0  0
   -6.0962    1.2782   -1.7853 H   0  0  0  0  0  0  0  0  0  0  0  0
   -5.1897    0.6093   -3.1382 H   0  0  0  0  0  0  0  0  0  0  0  0
   -5.8068   -1.5210   -4.0594 H   0  0  0  0  0  0  0  0  0  0  0  0
   -5.4404   -2.3588   -2.5373 H   0  0  0  0  0  0  0  0  0  0  0  0
   -6.9922   -3.6702   -3.9628 H   0  0  0  0  0  0  0  0  0  0  0  0
   -7.7461   -3.2597   -2.4168 H   0  0  0  0  0  0  0  0  0  0  0  0
   -9.3890   -1.4747   -2.3907 H   0  0  0  0  0  0  0  0  0  0  0  0
   -9.7577   -0.6644   -3.9187 H   0  0  0  0  0  0  0  0  0  0  0  0
   -8.2845    0.7506   -2.4832 H   0  0  0  0  0  0  0  0  0  0  0  0
   -7.5168    0.3403   -4.0319 H   0  0  0  0  0  0  0  0  0  0  0  0
  1  2  1  0
  2  3  1  0
  3  4  2  0
  4  5  1  0
  5  6  2  0
  6  7  1  0
  7  8  2  0
  8  9  1  0
  9 10  2  0
 10 11  1  0
 11 12  1  0
 12 13  2  0
 13 14  1  0
 14 15  1  0
 10 16  1  0
 16 17  1  0
 17 18  2  0
 17 19  1  0
 19 20  2  0
 20 21  1  0
 21 22  2  0
 22 23  1  0
 23 24  2  0
 22 25  1  0
  4 26  1  0
 26 27  1  0
 27 28  1  0
 28 29  1  0
 29 30  1  0
 30 31  1  0
 31 32  1  0
 32 33  1  0
 33 34  1  0
 34 35  1  0
  8  3  1  0
 12  7  1  0
 15 11  1  0
 24 19  1  0
 35 30  1  0
  1 36  1  0
  1 37  1  0
  1 38  1  0
  5 39  1  0
  6 40  1  0
 14 41  1  0
 14 42  1  0
 15 43  1  0
 15 44  1  0
 16 45  1  0
 20 46  1  0
 24 47  1  0
 25 48  1  0
 25 49  1  0
 27 50  1  0
 27 51  1  0
 28 52  1  0
 28 53  1  0
 29 54  1  0
 29 55  1  0
 31 56  1  0
 31 57  1  0
 32 58  1  0
 32 59  1  0
 34 60  1  0
 34 61  1  0
 35 62  1  0
 35 63  1  0
M  END
>  <energy_abs>  (1) 
-27.930548410122693

>  <SMILES>  (1) 
COc1c(ccc2c1N=C(N3C2=NCC3)NC(=O)c4cnc(nc4)N)OCCCN5CCOCC5

>  <cluster_no>  (1) 
215

>  <fda_drugs_id>  (1) 
5G2N_6E2

>  <initial_conformation_id>  (1) 
82

>  <minimize_method>  (1) 
MMFF

$$$$
