
     RDKit          3D

 62 66  0  0  0  0  0  0  0  0999 V2000
    3.8964   -3.2953   -1.7806 C   0  0  0  0  0  0  0  0  0  0  0  0
    3.9205   -2.0394   -0.9438 C   0  0  0  0  0  0  0  0  0  0  0  0
    5.0408   -1.4524   -0.4735 C   0  0  0  0  0  0  0  0  0  0  0  0
    4.9932   -0.1690    0.2881 C   0  0  0  0  0  0  0  0  0  0  0  0
    6.0526    0.3358    0.6584 O   0  0  0  0  0  0  0  0  0  0  0  0
    3.7508    0.3956    0.5394 N   0  0  0  0  0  0  0  0  0  0  0  0
    2.5515   -0.2122    0.0723 C   0  0  0  0  0  0  0  0  0  0  0  0
    2.6285   -1.3984   -0.6365 C   0  0  0  0  0  0  0  0  0  0  0  0
    1.3998   -1.9064   -1.0115 C   0  0  0  0  0  0  0  0  0  0  0  0
    0.2151   -1.3202   -0.7490 N   0  0  0  0  0  0  0  0  0  0  0  0
    0.2369   -0.1691   -0.0736 C   0  0  0  0  0  0  0  0  0  0  0  0
    1.3765    0.3974    0.3432 N   0  0  0  0  0  0  0  0  0  0  0  0
   -0.9204    0.5159    0.2404 N   0  0  0  0  0  0  0  0  0  0  0  0
   -2.2679    0.3095    0.0164 C   0  0  0  0  0  0  0  0  0  0  0  0
   -2.7960   -0.7808   -0.6575 C   0  0  0  0  0  0  0  0  0  0  0  0
   -4.1828   -0.8976   -0.8264 C   0  0  0  0  0  0  0  0  0  0  0  0
   -5.0538    0.0641   -0.3173 C   0  0  0  0  0  0  0  0  0  0  0  0
   -4.4168    1.1297    0.3236 C   0  0  0  0  0  0  0  0  0  0  0  0
   -3.0765    1.2695    0.5075 N   0  0  0  0  0  0  0  0  0  0  0  0
   -6.4481    0.0165   -0.4586 N   0  0  0  0  0  0  0  0  0  0  0  0
   -7.0227   -1.0121   -1.3540 C   0  0  0  0  0  0  0  0  0  0  0  0
   -8.5343   -0.7701   -1.5666 C   0  0  0  0  0  0  0  0  0  0  0  0
   -9.2974   -0.7113   -0.3065 N   0  0  0  0  0  0  0  0  0  0  0  0
   -8.7053    0.3218    0.5628 C   0  0  0  0  0  0  0  0  0  0  0  0
   -7.1931    0.1237    0.8220 C   0  0  0  0  0  0  0  0  0  0  0  0
    3.6518    1.6656    1.2801 C   0  0  0  0  0  0  0  0  0  0  0  0
    4.2624    2.8598    0.5279 C   0  0  0  0  0  0  0  0  0  0  0  0
    4.7494    3.7830    1.6338 C   0  0  0  0  0  0  0  0  0  0  0  0
    5.3080    2.8201    2.6683 C   0  0  0  0  0  0  0  0  0  0  0  0
    4.3260    1.6521    2.6693 C   0  0  0  0  0  0  0  0  0  0  0  0
    6.3750   -2.0846   -0.7107 C   0  0  0  0  0  0  0  0  0  0  0  0
    6.5692   -3.2654   -0.4193 O   0  0  0  0  0  0  0  0  0  0  0  0
    7.4629   -1.2415   -1.3239 C   0  0  0  0  0  0  0  0  0  0  0  0
    3.3004   -3.1450   -2.6880 H   0  0  0  0  0  0  0  0  0  0  0  0
    3.4682   -4.1268   -1.2107 H   0  0  0  0  0  0  0  0  0  0  0  0
    4.8821   -3.6068   -2.1348 H   0  0  0  0  0  0  0  0  0  0  0  0
    1.3014   -2.8406   -1.5568 H   0  0  0  0  0  0  0  0  0  0  0  0
   -0.7431    1.3674    0.7486 H   0  0  0  0  0  0  0  0  0  0  0  0
   -2.1580   -1.5580   -1.0607 H   0  0  0  0  0  0  0  0  0  0  0  0
   -4.5487   -1.7732   -1.3521 H   0  0  0  0  0  0  0  0  0  0  0  0
   -4.9936    1.9650    0.7109 H   0  0  0  0  0  0  0  0  0  0  0  0
   -6.8734   -2.0128   -0.9280 H   0  0  0  0  0  0  0  0  0  0  0  0
   -6.5378   -0.9750   -2.3371 H   0  0  0  0  0  0  0  0  0  0  0  0
   -8.6808    0.1650   -2.1220 H   0  0  0  0  0  0  0  0  0  0  0  0
   -8.9410   -1.5782   -2.1842 H   0  0  0  0  0  0  0  0  0  0  0  0
  -10.2623   -0.4569   -0.5142 H   0  0  0  0  0  0  0  0  0  0  0  0
   -9.2341    0.3159    1.5222 H   0  0  0  0  0  0  0  0  0  0  0  0
   -8.8696    1.3086    0.1114 H   0  0  0  0  0  0  0  0  0  0  0  0
   -7.0374   -0.7878    1.4142 H   0  0  0  0  0  0  0  0  0  0  0  0
   -6.8501    0.9734    1.4222 H   0  0  0  0  0  0  0  0  0  0  0  0
    2.6010    1.9134    1.4682 H   0  0  0  0  0  0  0  0  0  0  0  0
    3.5271    3.3482   -0.1199 H   0  0  0  0  0  0  0  0  0  0  0  0
    5.1046    2.5647   -0.1073 H   0  0  0  0  0  0  0  0  0  0  0  0
    3.9093    4.3481    2.0545 H   0  0  0  0  0  0  0  0  0  0  0  0
    5.5000    4.4954    1.2801 H   0  0  0  0  0  0  0  0  0  0  0  0
    6.3022    2.4750    2.3617 H   0  0  0  0  0  0  0  0  0  0  0  0
    5.4027    3.2807    3.6561 H   0  0  0  0  0  0  0  0  0  0  0  0
    3.5620    1.8207    3.4390 H   0  0  0  0  0  0  0  0  0  0  0  0
    4.8186    0.7082    2.9219 H   0  0  0  0  0  0  0  0  0  0  0  0
    8.1768   -0.9456   -0.5515 H   0  0  0  0  0  0  0  0  0  0  0  0
    7.0481   -0.3508   -1.8041 H   0  0  0  0  0  0  0  0  0  0  0  0
    7.9730   -1.8261   -2.0949 H   0  0  0  0  0  0  0  0  0  0  0  0
  1  2  1  0
  2  3  2  0
  3  4  1  0
  4  5  2  0
  4  6  1  0
  6  7  1  0
  7  8  2  0
  8  9  1  0
  9 10  2  0
 10 11  1  0
 11 12  2  0
 11 13  1  0
 13 14  1  0
 14 15  2  0
 15 16  1  0
 16 17  2  0
 17 18  1  0
 18 19  2  0
 17 20  1  0
 20 21  1  0
 21 22  1  0
 22 23  1  0
 23 24  1  0
 24 25  1  0
  6 26  1  0
 26 27  1  0
 27 28  1  0
 28 29  1  0
 29 30  1  0
  3 31  1  0
 31 32  2  0
 31 33  1  0
  8  2  1  0
 12  7  1  0
 19 14  1  0
 25 20  1  0
 30 26  1  0
  1 34  1  0
  1 35  1  0
  1 36  1  0
  9 37  1  0
 13 38  1  0
 15 39  1  0
 16 40  1  0
 18 41  1  0
 21 42  1  0
 21 43  1  0
 22 44  1  0
 22 45  1  0
 23 46  1  0
 24 47  1  0
 24 48  1  0
 25 49  1  0
 25 50  1  0
 26 51  1  0
 27 52  1  0
 27 53  1  0
 28 54  1  0
 28 55  1  0
 29 56  1  0
 29 57  1  0
 30 58  1  0
 30 59  1  0
 33 60  1  0
 33 61  1  0
 33 62  1  0
M  END
>  <energy_abs>  (1) 
13.1112598867634

>  <SMILES>  (1) 
CC1=C(C(=O)N(c2c1cnc(n2)Nc3ccc(cn3)N4CCNCC4)C5CCCC5)C(=O)C

>  <cluster_no>  (1) 
240

>  <fda_drugs_id>  (1) 
5L2I_LQQ

>  <initial_conformation_id>  (1) 
0

>  <minimize_method>  (1) 
MMFF

$$$$
