
     RDKit          3D

 69 73  0  0  0  0  0  0  0  0999 V2000
   10.6023    2.2933    2.0194 C   0  0  0  0  0  0  0  0  0  0  0  0
    9.7876    2.1672    3.3024 C   0  0  0  0  0  0  0  0  0  0  0  0
    8.4901    2.8559    3.2273 N   0  0  0  0  0  0  0  0  0  0  0  0
    7.5591    2.1890    2.2919 C   0  0  0  0  0  0  0  0  0  0  0  0
    6.1585    2.8479    2.2776 C   0  0  0  0  0  0  0  0  0  0  0  0
    5.5428    2.8958    3.6213 N   0  0  0  0  0  0  0  0  0  0  0  0
    6.4752    3.5736    4.5446 C   0  0  0  0  0  0  0  0  0  0  0  0
    7.8656    2.9017    4.5668 C   0  0  0  0  0  0  0  0  0  0  0  0
    4.2497    3.5947    3.6017 C   0  0  0  0  0  0  0  0  0  0  0  0
    3.1648    2.8263    2.8934 C   0  0  0  0  0  0  0  0  0  0  0  0
    2.4432    3.3752    1.8375 C   0  0  0  0  0  0  0  0  0  0  0  0
    1.4239    2.6346    1.2348 C   0  0  0  0  0  0  0  0  0  0  0  0
    1.1315    1.3568    1.6956 C   0  0  0  0  0  0  0  0  0  0  0  0
    1.8305    0.8092    2.7148 N   0  0  0  0  0  0  0  0  0  0  0  0
    2.8169    1.5421    3.2860 C   0  0  0  0  0  0  0  0  0  0  0  0
    0.1360    0.5487    1.1782 N   0  0  0  0  0  0  0  0  0  0  0  0
   -0.8876    0.7275    0.2681 C   0  0  0  0  0  0  0  0  0  0  0  0
   -1.0452    1.8808   -0.4013 N   0  0  0  0  0  0  0  0  0  0  0  0
   -2.0889    1.9653   -1.2502 C   0  0  0  0  0  0  0  0  0  0  0  0
   -2.9853    0.9484   -1.4516 C   0  0  0  0  0  0  0  0  0  0  0  0
   -2.7672   -0.2097   -0.7339 C   0  0  0  0  0  0  0  0  0  0  0  0
   -1.7154   -0.3227    0.1181 N   0  0  0  0  0  0  0  0  0  0  0  0
   -3.6366   -1.4018   -0.8222 C   0  0  0  0  0  0  0  0  0  0  0  0
   -5.0390   -1.2830   -0.9592 C   0  0  0  0  0  0  0  0  0  0  0  0
   -5.8265   -2.4473   -1.0317 C   0  0  0  0  0  0  0  0  0  0  0  0
   -5.2612   -3.7194   -0.9689 C   0  0  0  0  0  0  0  0  0  0  0  0
   -3.8700   -3.8374   -0.8266 C   0  0  0  0  0  0  0  0  0  0  0  0
   -3.0773   -2.6896   -0.7513 C   0  0  0  0  0  0  0  0  0  0  0  0
   -3.2800   -5.0404   -0.7624 F   0  0  0  0  0  0  0  0  0  0  0  0
   -6.2297   -4.6863   -1.0609 N   0  0  0  0  0  0  0  0  0  0  0  0
   -7.3759   -4.0488   -1.1721 C   0  0  0  0  0  0  0  0  0  0  0  0
   -7.1835   -2.6786   -1.1611 N   0  0  0  0  0  0  0  0  0  0  0  0
   -8.2412   -1.6751   -1.2704 C   0  0  0  0  0  0  0  0  0  0  0  0
   -8.1121   -0.8242   -2.5344 C   0  0  0  0  0  0  0  0  0  0  0  0
   -8.3683   -0.8216   -0.0078 C   0  0  0  0  0  0  0  0  0  0  0  0
   -8.6997   -4.7142   -1.2906 C   0  0  0  0  0  0  0  0  0  0  0  0
   -3.9993    1.0966   -2.3139 F   0  0  0  0  0  0  0  0  0  0  0  0
   10.1452    1.7477    1.1886 H   0  0  0  0  0  0  0  0  0  0  0  0
   11.6040    1.8763    2.1736 H   0  0  0  0  0  0  0  0  0  0  0  0
   10.7180    3.3424    1.7260 H   0  0  0  0  0  0  0  0  0  0  0  0
   10.3858    2.6185    4.1043 H   0  0  0  0  0  0  0  0  0  0  0  0
    9.6620    1.1072    3.5577 H   0  0  0  0  0  0  0  0  0  0  0  0
    7.4514    1.1264    2.5492 H   0  0  0  0  0  0  0  0  0  0  0  0
    7.9527    2.2407    1.2707 H   0  0  0  0  0  0  0  0  0  0  0  0
    5.5272    2.2666    1.5954 H   0  0  0  0  0  0  0  0  0  0  0  0
    6.2461    3.8597    1.8586 H   0  0  0  0  0  0  0  0  0  0  0  0
    6.5904    4.6313    4.2697 H   0  0  0  0  0  0  0  0  0  0  0  0
    6.0682    3.5429    5.5630 H   0  0  0  0  0  0  0  0  0  0  0  0
    7.7688    1.8893    4.9828 H   0  0  0  0  0  0  0  0  0  0  0  0
    8.5061    3.4747    5.2485 H   0  0  0  0  0  0  0  0  0  0  0  0
    4.3557    4.5967    3.1656 H   0  0  0  0  0  0  0  0  0  0  0  0
    3.8969    3.7466    4.6308 H   0  0  0  0  0  0  0  0  0  0  0  0
    2.6614    4.3751    1.4734 H   0  0  0  0  0  0  0  0  0  0  0  0
    0.8769    3.0755    0.4106 H   0  0  0  0  0  0  0  0  0  0  0  0
    3.3402    1.0461    4.0998 H   0  0  0  0  0  0  0  0  0  0  0  0
    0.0822   -0.3403    1.6504 H   0  0  0  0  0  0  0  0  0  0  0  0
   -2.1887    2.9067   -1.7808 H   0  0  0  0  0  0  0  0  0  0  0  0
   -5.5038   -0.3027   -0.9937 H   0  0  0  0  0  0  0  0  0  0  0  0
   -2.0027   -2.8209   -0.6383 H   0  0  0  0  0  0  0  0  0  0  0  0
   -9.1851   -2.2232   -1.3660 H   0  0  0  0  0  0  0  0  0  0  0  0
   -8.0388   -1.4589   -3.4244 H   0  0  0  0  0  0  0  0  0  0  0  0
   -8.9896   -0.1796   -2.6539 H   0  0  0  0  0  0  0  0  0  0  0  0
   -7.2302   -0.1784   -2.5126 H   0  0  0  0  0  0  0  0  0  0  0  0
   -9.2578   -0.1847   -0.0644 H   0  0  0  0  0  0  0  0  0  0  0  0
   -7.5044   -0.1671    0.1408 H   0  0  0  0  0  0  0  0  0  0  0  0
   -8.4629   -1.4550    0.8821 H   0  0  0  0  0  0  0  0  0  0  0  0
   -9.3537   -4.4294   -0.4606 H   0  0  0  0  0  0  0  0  0  0  0  0
   -9.1842   -4.4509   -2.2357 H   0  0  0  0  0  0  0  0  0  0  0  0
   -8.5829   -5.8023   -1.2653 H   0  0  0  0  0  0  0  0  0  0  0  0
  1  2  1  0
  2  3  1  0
  3  4  1  0
  4  5  1  0
  5  6  1  0
  6  7  1  0
  7  8  1  0
  6  9  1  0
  9 10  1  0
 10 11  2  0
 11 12  1  0
 12 13  2  0
 13 14  1  0
 14 15  2  0
 13 16  1  0
 16 17  1  0
 17 18  2  0
 18 19  1  0
 19 20  2  0
 20 21  1  0
 21 22  2  0
 21 23  1  0
 23 24  2  0
 24 25  1  0
 25 26  2  0
 26 27  1  0
 27 28  2  0
 27 29  1  0
 26 30  1  0
 30 31  2  0
 31 32  1  0
 32 33  1  0
 33 34  1  0
 33 35  1  0
 31 36  1  0
 20 37  1  0
  8  3  1  0
 15 10  1  0
 22 17  1  0
 28 23  1  0
 32 25  1  0
  1 38  1  0
  1 39  1  0
  1 40  1  0
  2 41  1  0
  2 42  1  0
  4 43  1  0
  4 44  1  0
  5 45  1  0
  5 46  1  0
  7 47  1  0
  7 48  1  0
  8 49  1  0
  8 50  1  0
  9 51  1  0
  9 52  1  0
 11 53  1  0
 12 54  1  0
 15 55  1  0
 16 56  1  0
 19 57  1  0
 24 58  1  0
 28 59  1  0
 33 60  1  0
 34 61  1  0
 34 62  1  0
 34 63  1  0
 35 64  1  0
 35 65  1  0
 35 66  1  0
 36 67  1  0
 36 68  1  0
 36 69  1  0
M  END
>  <energy_abs>  (1) 
46.04765234128989

>  <SMILES>  (1) 
CCN1CCN(CC1)Cc2ccc(nc2)Nc3ncc(c(n3)c4cc5c(c(c4)F)nc(n5C(C)C)C)F

>  <cluster_no>  (1) 
88

>  <fda_drugs_id>  (1) 
5L2S_6ZV

>  <initial_conformation_id>  (1) 
212

>  <minimize_method>  (1) 
MMFF

$$$$
