
     RDKit          3D

 46 50  0  0  0  0  0  0  0  0999 V2000
   -2.4886    2.0461   -0.6016 C   0  0  0  0  0  0  0  0  0  0  0  0
   -3.6939    2.6114   -0.9597 C   0  0  0  0  0  0  0  0  0  0  0  0
   -4.6677    1.6888   -0.7060 N   0  0  0  0  0  0  0  0  0  0  0  0
   -4.1084    0.5497   -0.1968 C   0  0  0  0  0  0  0  0  0  0  0  0
   -2.7241    0.7227   -0.1077 C   0  0  0  0  0  0  0  0  0  0  0  0
   -1.9448   -0.3540    0.4061 C   0  0  0  0  0  0  0  0  0  0  0  0
   -2.6972   -1.5149    0.7478 C   0  0  0  0  0  0  0  0  0  0  0  0
   -4.0830   -1.5337    0.6191 C   0  0  0  0  0  0  0  0  0  0  0  0
   -4.8388   -0.5257    0.1413 N   0  0  0  0  0  0  0  0  0  0  0  0
   -2.0329   -2.7143    1.3133 C   0  0  0  0  0  0  0  0  0  0  0  0
   -1.0969   -2.6232    2.0995 O   0  0  0  0  0  0  0  0  0  0  0  0
   -2.4937   -3.9370    0.9019 N   0  0  0  0  0  0  0  0  0  0  0  0
   -0.5387   -0.4200    0.5227 N   0  0  0  0  0  0  0  0  0  0  0  0
    0.3550    0.7155    0.3224 C   0  0  1  0  0  0  0  0  0  0  0  0
    1.6487    0.5269    1.1647 C   0  0  2  0  0  0  0  0  0  0  0  0
    2.5318    1.7790    0.9896 C   0  0  0  0  0  0  0  0  0  0  0  0
    2.9157    1.9535   -0.4909 C   0  0  2  0  0  0  0  0  0  0  0  0
    1.6372    2.0936   -1.3367 C   0  0  0  0  0  0  0  0  0  0  0  0
    0.7500    0.8438   -1.1711 C   0  0  1  0  0  0  0  0  0  0  0  0
    1.5472   -0.3913   -1.6341 C   0  0  0  0  0  0  0  0  0  0  0  0
    2.8223   -0.5453   -0.7912 C   0  0  2  0  0  0  0  0  0  0  0  0
    2.4438   -0.7038    0.6894 C   0  0  0  0  0  0  0  0  0  0  0  0
    3.6925    0.7121   -0.9577 C   0  0  0  0  0  0  0  0  0  0  0  0
    3.5590   -1.6781   -1.2280 O   0  0  0  0  0  0  0  0  0  0  0  0
   -1.5410    2.5549   -0.6941 H   0  0  0  0  0  0  0  0  0  0  0  0
   -3.9361    3.5833   -1.3687 H   0  0  0  0  0  0  0  0  0  0  0  0
   -5.6590    1.8008   -0.8602 H   0  0  0  0  0  0  0  0  0  0  0  0
   -4.6592   -2.4025    0.9291 H   0  0  0  0  0  0  0  0  0  0  0  0
   -1.9361   -4.7330    1.1879 H   0  0  0  0  0  0  0  0  0  0  0  0
   -3.0324   -4.0399    0.0519 H   0  0  0  0  0  0  0  0  0  0  0  0
   -0.3087   -0.9572    1.3713 H   0  0  0  0  0  0  0  0  0  0  0  0
   -0.1227    1.6314    0.6863 H   0  0  0  0  0  0  0  0  0  0  0  0
    1.3932    0.4062    2.2245 H   0  0  0  0  0  0  0  0  0  0  0  0
    3.4369    1.6870    1.6025 H   0  0  0  0  0  0  0  0  0  0  0  0
    1.9969    2.6683    1.3452 H   0  0  0  0  0  0  0  0  0  0  0  0
    3.5385    2.8470   -0.6096 H   0  0  0  0  0  0  0  0  0  0  0  0
    1.9012    2.2270   -2.3931 H   0  0  0  0  0  0  0  0  0  0  0  0
    1.0832    2.9900   -1.0325 H   0  0  0  0  0  0  0  0  0  0  0  0
   -0.1371    0.9413   -1.8051 H   0  0  0  0  0  0  0  0  0  0  0  0
    0.9347   -1.2994   -1.5677 H   0  0  0  0  0  0  0  0  0  0  0  0
    1.8098   -0.2969   -2.6961 H   0  0  0  0  0  0  0  0  0  0  0  0
    1.8685   -1.6261    0.8379 H   0  0  0  0  0  0  0  0  0  0  0  0
    3.3500   -0.8285    1.2968 H   0  0  0  0  0  0  0  0  0  0  0  0
    4.6240    0.6055   -0.3867 H   0  0  0  0  0  0  0  0  0  0  0  0
    3.9995    0.8234   -2.0058 H   0  0  0  0  0  0  0  0  0  0  0  0
    2.9949   -2.4610   -1.1018 H   0  0  0  0  0  0  0  0  0  0  0  0
  1  2  2  0
  2  3  1  0
  3  4  1  0
  4  5  2  0
  5  6  1  0
  6  7  2  0
  7  8  1  0
  8  9  2  0
  7 10  1  0
 10 11  2  0
 10 12  1  0
  6 13  1  0
 13 14  1  0
 14 15  1  0
 15 16  1  0
 16 17  1  0
 17 18  1  0
 18 19  1  0
 19 20  1  0
 20 21  1  0
 21 22  1  0
 21 23  1  0
 21 24  1  6
  5  1  1  0
  9  4  1  0
 19 14  1  0
 22 15  1  0
 23 17  1  0
  1 25  1  0
  2 26  1  0
  3 27  1  0
  8 28  1  0
 12 29  1  0
 12 30  1  0
 13 31  1  0
 14 32  1  1
 15 33  1  1
 16 34  1  0
 16 35  1  0
 17 36  1  1
 18 37  1  0
 18 38  1  0
 19 39  1  6
 20 40  1  0
 20 41  1  0
 22 42  1  0
 22 43  1  0
 23 44  1  0
 23 45  1  0
 24 46  1  0
M  END
>  <energy_abs>  (1) 
58.18895639950044

>  <SMILES>  (1) 
c1c[nH]c2c1c(c(cn2)C(=O)N)NC3[C@@H]4CC5C[C@H]3CC(C4)(C5)O

>  <cluster_no>  (1) 
17

>  <fda_drugs_id>  (1) 
6AAH_9T6

>  <initial_conformation_id>  (1) 
20

>  <minimize_method>  (1) 
MMFF

$$$$
