
     RDKit          3D

 52 54  0  0  0  0  0  0  0  0999 V2000
   -1.8393   -1.9566   -5.0814 C   0  0  0  0  0  0  0  0  0  0  0  0
   -0.9283   -1.9061   -3.9910 O   0  0  0  0  0  0  0  0  0  0  0  0
   -1.5777   -1.8851   -2.7196 C   0  0  0  0  0  0  0  0  0  0  0  0
   -2.1440   -0.5055   -2.3806 C   0  0  0  0  0  0  0  0  0  0  0  0
   -2.6021   -0.4537   -1.0314 O   0  0  0  0  0  0  0  0  0  0  0  0
   -1.7301   -0.0919   -0.0376 C   0  0  0  0  0  0  0  0  0  0  0  0
   -0.3605    0.1143   -0.2112 C   0  0  0  0  0  0  0  0  0  0  0  0
    0.4713    0.4791    0.8792 C   0  0  0  0  0  0  0  0  0  0  0  0
   -0.0976    0.6517    2.1458 C   0  0  0  0  0  0  0  0  0  0  0  0
   -1.4602    0.4373    2.3077 C   0  0  0  0  0  0  0  0  0  0  0  0
   -2.2856    0.0616    1.2429 C   0  0  0  0  0  0  0  0  0  0  0  0
   -3.6354   -0.1639    1.3395 O   0  0  0  0  0  0  0  0  0  0  0  0
   -4.2708   -0.0932    2.6143 C   0  0  0  0  0  0  0  0  0  0  0  0
   -4.7065    1.3359    2.9396 C   0  0  0  0  0  0  0  0  0  0  0  0
   -5.3538    1.4183    4.2096 O   0  0  0  0  0  0  0  0  0  0  0  0
   -4.4380    1.5367    5.2906 C   0  0  0  0  0  0  0  0  0  0  0  0
    0.6141    1.0160    3.2150 N   0  0  0  0  0  0  0  0  0  0  0  0
    1.9216    1.2197    3.0251 C   0  0  0  0  0  0  0  0  0  0  0  0
    2.5806    1.0827    1.8730 N   0  0  0  0  0  0  0  0  0  0  0  0
    1.8624    0.7029    0.8013 C   0  0  0  0  0  0  0  0  0  0  0  0
    2.5179    0.5062   -0.4449 N   0  0  0  0  0  0  0  0  0  0  0  0
    3.8163    0.9094   -0.8334 C   0  0  0  0  0  0  0  0  0  0  0  0
    4.4513    2.0380   -0.3014 C   0  0  0  0  0  0  0  0  0  0  0  0
    5.7077    2.4451   -0.7608 C   0  0  0  0  0  0  0  0  0  0  0  0
    6.3390    1.7411   -1.7836 C   0  0  0  0  0  0  0  0  0  0  0  0
    5.7069    0.6378   -2.3544 C   0  0  0  0  0  0  0  0  0  0  0  0
    4.4496    0.2346   -1.8901 C   0  0  0  0  0  0  0  0  0  0  0  0
    6.3396   -0.0782   -3.4196 C   0  0  0  0  0  0  0  0  0  0  0  0
    6.8703   -0.6796   -4.3133 C   0  0  0  0  0  0  0  0  0  0  0  0
   -1.2610   -2.0414   -6.0057 H   0  0  0  0  0  0  0  0  0  0  0  0
   -2.4920   -2.8309   -4.9993 H   0  0  0  0  0  0  0  0  0  0  0  0
   -2.4360   -1.0421   -5.1333 H   0  0  0  0  0  0  0  0  0  0  0  0
   -2.3580   -2.6542   -2.6673 H   0  0  0  0  0  0  0  0  0  0  0  0
   -0.8267   -2.1730   -1.9767 H   0  0  0  0  0  0  0  0  0  0  0  0
   -1.4532    0.3090   -2.6281 H   0  0  0  0  0  0  0  0  0  0  0  0
   -3.0228   -0.3223   -3.0098 H   0  0  0  0  0  0  0  0  0  0  0  0
    0.0944    0.0070   -1.1902 H   0  0  0  0  0  0  0  0  0  0  0  0
   -1.8574    0.5824    3.3066 H   0  0  0  0  0  0  0  0  0  0  0  0
   -3.6718   -0.5580    3.4048 H   0  0  0  0  0  0  0  0  0  0  0  0
   -5.1707   -0.7175    2.5540 H   0  0  0  0  0  0  0  0  0  0  0  0
   -3.8741    2.0465    2.8818 H   0  0  0  0  0  0  0  0  0  0  0  0
   -5.4294    1.6617    2.1828 H   0  0  0  0  0  0  0  0  0  0  0  0
   -3.7881    0.6597    5.3523 H   0  0  0  0  0  0  0  0  0  0  0  0
   -5.0117    1.6074    6.2187 H   0  0  0  0  0  0  0  0  0  0  0  0
   -3.8363    2.4445    5.1847 H   0  0  0  0  0  0  0  0  0  0  0  0
    2.5029    1.5225    3.8893 H   0  0  0  0  0  0  0  0  0  0  0  0
    2.3076   -0.4276   -0.7832 H   0  0  0  0  0  0  0  0  0  0  0  0
    3.9720    2.6234    0.4787 H   0  0  0  0  0  0  0  0  0  0  0  0
    6.1862    3.3170   -0.3228 H   0  0  0  0  0  0  0  0  0  0  0  0
    7.3147    2.0640   -2.1373 H   0  0  0  0  0  0  0  0  0  0  0  0
    3.9645   -0.6180   -2.3595 H   0  0  0  0  0  0  0  0  0  0  0  0
    7.3416   -1.2127   -5.1057 H   0  0  0  0  0  0  0  0  0  0  0  0
  1  2  1  0
  2  3  1  0
  3  4  1  0
  4  5  1  0
  5  6  1  0
  6  7  2  0
  7  8  1  0
  8  9  2  0
  9 10  1  0
 10 11  2  0
 11 12  1  0
 12 13  1  0
 13 14  1  0
 14 15  1  0
 15 16  1  0
  9 17  1  0
 17 18  2  0
 18 19  1  0
 19 20  2  0
 20 21  1  0
 21 22  1  0
 22 23  2  0
 23 24  1  0
 24 25  2  0
 25 26  1  0
 26 27  2  0
 26 28  1  0
 28 29  3  0
 11  6  1  0
 20  8  1  0
 27 22  1  0
  1 30  1  0
  1 31  1  0
  1 32  1  0
  3 33  1  0
  3 34  1  0
  4 35  1  0
  4 36  1  0
  7 37  1  0
 10 38  1  0
 13 39  1  0
 13 40  1  0
 14 41  1  0
 14 42  1  0
 16 43  1  0
 16 44  1  0
 16 45  1  0
 18 46  1  0
 21 47  1  0
 23 48  1  0
 24 49  1  0
 25 50  1  0
 27 51  1  0
 29 52  1  0
M  END
>  <energy_abs>  (1) 
61.80042284694798

>  <SMILES>  (1) 
COCCOc1cc2c(cc1OCCOC)ncnc2Nc3cccc(c3)C#C

>  <cluster_no>  (1) 
1

>  <fda_drugs_id>  (1) 
AAKJLRGGTJKAMG-UHFFFAOYSA-N

>  <initial_conformation_id>  (1) 
245

>  <minimize_method>  (1) 
MMFF

$$$$

     RDKit          3D

 52 54  0  0  0  0  0  0  0  0999 V2000
   -1.2861   -1.9681   -3.8758 C   0  0  0  0  0  0  0  0  0  0  0  0
   -1.3411   -0.7561   -3.1334 O   0  0  0  0  0  0  0  0  0  0  0  0
   -2.6799   -0.2477   -3.0623 C   0  0  0  0  0  0  0  0  0  0  0  0
   -2.7361    0.9998   -2.1763 C   0  0  0  0  0  0  0  0  0  0  0  0
   -2.9443    0.6617   -0.8022 O   0  0  0  0  0  0  0  0  0  0  0  0
   -1.8844    0.3736    0.0134 C   0  0  0  0  0  0  0  0  0  0  0  0
   -0.5480    0.3846   -0.3801 C   0  0  0  0  0  0  0  0  0  0  0  0
    0.4893    0.0359    0.5204 C   0  0  0  0  0  0  0  0  0  0  0  0
    0.1687   -0.2791    1.8445 C   0  0  0  0  0  0  0  0  0  0  0  0
   -1.1651   -0.2712    2.2329 C   0  0  0  0  0  0  0  0  0  0  0  0
   -2.1980    0.0373    1.3404 C   0  0  0  0  0  0  0  0  0  0  0  0
   -3.5313    0.0571    1.6635 O   0  0  0  0  0  0  0  0  0  0  0  0
   -3.9587   -0.4131    2.9452 C   0  0  0  0  0  0  0  0  0  0  0  0
   -3.9441    0.7060    3.9885 C   0  0  0  0  0  0  0  0  0  0  0  0
   -5.0387    1.5977    3.7510 O   0  0  0  0  0  0  0  0  0  0  0  0
   -5.0215    2.7010    4.6460 C   0  0  0  0  0  0  0  0  0  0  0  0
    1.0936   -0.5909    2.7564 N   0  0  0  0  0  0  0  0  0  0  0  0
    2.3657   -0.5918    2.3439 C   0  0  0  0  0  0  0  0  0  0  0  0
    2.7952   -0.3250    1.1085 N   0  0  0  0  0  0  0  0  0  0  0  0
    1.8595   -0.0224    0.1912 C   0  0  0  0  0  0  0  0  0  0  0  0
    2.2497    0.2362   -1.1516 N   0  0  0  0  0  0  0  0  0  0  0  0
    3.5437    0.4479   -1.6775 C   0  0  0  0  0  0  0  0  0  0  0  0
    3.7635    0.2149   -3.0452 C   0  0  0  0  0  0  0  0  0  0  0  0
    5.0069    0.4655   -3.6319 C   0  0  0  0  0  0  0  0  0  0  0  0
    6.0473    0.9792   -2.8617 C   0  0  0  0  0  0  0  0  0  0  0  0
    5.8383    1.2530   -1.5103 C   0  0  0  0  0  0  0  0  0  0  0  0
    4.5905    0.9997   -0.9286 C   0  0  0  0  0  0  0  0  0  0  0  0
    6.8979    1.8034   -0.7212 C   0  0  0  0  0  0  0  0  0  0  0  0
    7.7863    2.2653   -0.0583 C   0  0  0  0  0  0  0  0  0  0  0  0
   -1.8843   -2.7434   -3.3876 H   0  0  0  0  0  0  0  0  0  0  0  0
   -1.6376   -1.8072   -4.8995 H   0  0  0  0  0  0  0  0  0  0  0  0
   -0.2454   -2.3014   -3.9115 H   0  0  0  0  0  0  0  0  0  0  0  0
   -2.9903    0.0197   -4.0786 H   0  0  0  0  0  0  0  0  0  0  0  0
   -3.3463   -1.0239   -2.6690 H   0  0  0  0  0  0  0  0  0  0  0  0
   -3.6255    1.5725   -2.4633 H   0  0  0  0  0  0  0  0  0  0  0  0
   -1.8807    1.6690   -2.3156 H   0  0  0  0  0  0  0  0  0  0  0  0
   -0.2773    0.6618   -1.3922 H   0  0  0  0  0  0  0  0  0  0  0  0
   -1.3688   -0.5142    3.2701 H   0  0  0  0  0  0  0  0  0  0  0  0
   -4.9888   -0.7629    2.8104 H   0  0  0  0  0  0  0  0  0  0  0  0
   -3.3770   -1.2834    3.2676 H   0  0  0  0  0  0  0  0  0  0  0  0
   -4.0631    0.2718    4.9871 H   0  0  0  0  0  0  0  0  0  0  0  0
   -3.0067    1.2703    3.9456 H   0  0  0  0  0  0  0  0  0  0  0  0
   -5.0936    2.3557    5.6818 H   0  0  0  0  0  0  0  0  0  0  0  0
   -4.1109    3.2919    4.5080 H   0  0  0  0  0  0  0  0  0  0  0  0
   -5.8849    3.3351    4.4279 H   0  0  0  0  0  0  0  0  0  0  0  0
    3.1215   -0.8363    3.0823 H   0  0  0  0  0  0  0  0  0  0  0  0
    1.6819   -0.3319   -1.7741 H   0  0  0  0  0  0  0  0  0  0  0  0
    2.9625   -0.1706   -3.6713 H   0  0  0  0  0  0  0  0  0  0  0  0
    5.1600    0.2661   -4.6890 H   0  0  0  0  0  0  0  0  0  0  0  0
    7.0130    1.1752   -3.3207 H   0  0  0  0  0  0  0  0  0  0  0  0
    4.4399    1.2464    0.1188 H   0  0  0  0  0  0  0  0  0  0  0  0
    8.5722    2.6749    0.5321 H   0  0  0  0  0  0  0  0  0  0  0  0
  1  2  1  0
  2  3  1  0
  3  4  1  0
  4  5  1  0
  5  6  1  0
  6  7  2  0
  7  8  1  0
  8  9  2  0
  9 10  1  0
 10 11  2  0
 11 12  1  0
 12 13  1  0
 13 14  1  0
 14 15  1  0
 15 16  1  0
  9 17  1  0
 17 18  2  0
 18 19  1  0
 19 20  2  0
 20 21  1  0
 21 22  1  0
 22 23  2  0
 23 24  1  0
 24 25  2  0
 25 26  1  0
 26 27  2  0
 26 28  1  0
 28 29  3  0
 11  6  1  0
 20  8  1  0
 27 22  1  0
  1 30  1  0
  1 31  1  0
  1 32  1  0
  3 33  1  0
  3 34  1  0
  4 35  1  0
  4 36  1  0
  7 37  1  0
 10 38  1  0
 13 39  1  0
 13 40  1  0
 14 41  1  0
 14 42  1  0
 16 43  1  0
 16 44  1  0
 16 45  1  0
 18 46  1  0
 21 47  1  0
 23 48  1  0
 24 49  1  0
 25 50  1  0
 27 51  1  0
 29 52  1  0
M  END
>  <energy_abs>  (2) 
61.352584950359734

>  <SMILES>  (2) 
COCCOc1cc2c(cc1OCCOC)ncnc2Nc3cccc(c3)C#C

>  <cluster_no>  (2) 
2

>  <fda_drugs_id>  (2) 
AAKJLRGGTJKAMG-UHFFFAOYSA-N

>  <initial_conformation_id>  (2) 
239

>  <minimize_method>  (2) 
MMFF

$$$$

     RDKit          3D

 52 54  0  0  0  0  0  0  0  0999 V2000
   -4.2312   -1.9853   -3.1340 C   0  0  0  0  0  0  0  0  0  0  0  0
   -3.0780   -2.0425   -2.3086 O   0  0  0  0  0  0  0  0  0  0  0  0
   -1.9769   -1.2693   -2.7941 C   0  0  0  0  0  0  0  0  0  0  0  0
   -2.2139    0.2485   -2.7840 C   0  0  0  0  0  0  0  0  0  0  0  0
   -2.5801    0.7592   -1.4986 O   0  0  0  0  0  0  0  0  0  0  0  0
   -1.6456    0.7377   -0.4975 C   0  0  0  0  0  0  0  0  0  0  0  0
   -0.2742    0.8781   -0.7078 C   0  0  0  0  0  0  0  0  0  0  0  0
    0.6366    0.8594    0.3793 C   0  0  0  0  0  0  0  0  0  0  0  0
    0.1491    0.6972    1.6816 C   0  0  0  0  0  0  0  0  0  0  0  0
   -1.2217    0.5840    1.8778 C   0  0  0  0  0  0  0  0  0  0  0  0
   -2.1271    0.6002    0.8117 C   0  0  0  0  0  0  0  0  0  0  0  0
   -3.4890    0.5186    0.9512 O   0  0  0  0  0  0  0  0  0  0  0  0
   -4.0134   -0.0854    2.1334 C   0  0  0  0  0  0  0  0  0  0  0  0
   -4.4724    0.9818    3.1225 C   0  0  0  0  0  0  0  0  0  0  0  0
   -4.9666    0.3520    4.3045 O   0  0  0  0  0  0  0  0  0  0  0  0
   -5.4083    1.3090    5.2597 C   0  0  0  0  0  0  0  0  0  0  0  0
    0.9491    0.6545    2.7504 N   0  0  0  0  0  0  0  0  0  0  0  0
    2.2625    0.7601    2.5246 C   0  0  0  0  0  0  0  0  0  0  0  0
    2.8466    0.9252    1.3358 N   0  0  0  0  0  0  0  0  0  0  0  0
    2.0365    0.9868    0.2644 C   0  0  0  0  0  0  0  0  0  0  0  0
    2.5987    1.2123   -1.0229 N   0  0  0  0  0  0  0  0  0  0  0  0
    3.9496    1.0914   -1.4226 C   0  0  0  0  0  0  0  0  0  0  0  0
    4.3908    1.8060   -2.5484 C   0  0  0  0  0  0  0  0  0  0  0  0
    5.6968    1.6682   -3.0258 C   0  0  0  0  0  0  0  0  0  0  0  0
    6.5775    0.7910   -2.3976 C   0  0  0  0  0  0  0  0  0  0  0  0
    6.1469    0.0442   -1.3013 C   0  0  0  0  0  0  0  0  0  0  0  0
    4.8375    0.1858   -0.8279 C   0  0  0  0  0  0  0  0  0  0  0  0
    7.0429   -0.8733   -0.6660 C   0  0  0  0  0  0  0  0  0  0  0  0
    7.7960   -1.6407   -0.1307 C   0  0  0  0  0  0  0  0  0  0  0  0
   -3.9785   -2.2095   -4.1754 H   0  0  0  0  0  0  0  0  0  0  0  0
   -4.9424   -2.7378   -2.7794 H   0  0  0  0  0  0  0  0  0  0  0  0
   -4.7115   -1.0052   -3.0601 H   0  0  0  0  0  0  0  0  0  0  0  0
   -1.1271   -1.5172   -2.1507 H   0  0  0  0  0  0  0  0  0  0  0  0
   -1.7194   -1.6043   -3.8062 H   0  0  0  0  0  0  0  0  0  0  0  0
   -3.0529    0.4869   -3.4462 H   0  0  0  0  0  0  0  0  0  0  0  0
   -1.3559    0.7891   -3.1983 H   0  0  0  0  0  0  0  0  0  0  0  0
    0.1155    1.0020   -1.7116 H   0  0  0  0  0  0  0  0  0  0  0  0
   -1.5653    0.4902    2.9037 H   0  0  0  0  0  0  0  0  0  0  0  0
   -3.3306   -0.8123    2.5903 H   0  0  0  0  0  0  0  0  0  0  0  0
   -4.8857   -0.6772    1.8298 H   0  0  0  0  0  0  0  0  0  0  0  0
   -3.6430    1.6509    3.3780 H   0  0  0  0  0  0  0  0  0  0  0  0
   -5.2600    1.5935    2.6656 H   0  0  0  0  0  0  0  0  0  0  0  0
   -6.2282    1.9070    4.8508 H   0  0  0  0  0  0  0  0  0  0  0  0
   -5.7718    0.7733    6.1410 H   0  0  0  0  0  0  0  0  0  0  0  0
   -4.5818    1.9594    5.5629 H   0  0  0  0  0  0  0  0  0  0  0  0
    2.9154    0.7113    3.3895 H   0  0  0  0  0  0  0  0  0  0  0  0
    2.1706    2.0432   -1.4186 H   0  0  0  0  0  0  0  0  0  0  0  0
    3.7198    2.4866   -3.0658 H   0  0  0  0  0  0  0  0  0  0  0  0
    6.0244    2.2407   -3.8895 H   0  0  0  0  0  0  0  0  0  0  0  0
    7.5928    0.6853   -2.7716 H   0  0  0  0  0  0  0  0  0  0  0  0
    4.5126   -0.4242    0.0111 H   0  0  0  0  0  0  0  0  0  0  0  0
    8.4619   -2.3210    0.3468 H   0  0  0  0  0  0  0  0  0  0  0  0
  1  2  1  0
  2  3  1  0
  3  4  1  0
  4  5  1  0
  5  6  1  0
  6  7  2  0
  7  8  1  0
  8  9  2  0
  9 10  1  0
 10 11  2  0
 11 12  1  0
 12 13  1  0
 13 14  1  0
 14 15  1  0
 15 16  1  0
  9 17  1  0
 17 18  2  0
 18 19  1  0
 19 20  2  0
 20 21  1  0
 21 22  1  0
 22 23  2  0
 23 24  1  0
 24 25  2  0
 25 26  1  0
 26 27  2  0
 26 28  1  0
 28 29  3  0
 11  6  1  0
 20  8  1  0
 27 22  1  0
  1 30  1  0
  1 31  1  0
  1 32  1  0
  3 33  1  0
  3 34  1  0
  4 35  1  0
  4 36  1  0
  7 37  1  0
 10 38  1  0
 13 39  1  0
 13 40  1  0
 14 41  1  0
 14 42  1  0
 16 43  1  0
 16 44  1  0
 16 45  1  0
 18 46  1  0
 21 47  1  0
 23 48  1  0
 24 49  1  0
 25 50  1  0
 27 51  1  0
 29 52  1  0
M  END
>  <energy_abs>  (3) 
64.11155932548874

>  <SMILES>  (3) 
COCCOc1cc2c(cc1OCCOC)ncnc2Nc3cccc(c3)C#C

>  <cluster_no>  (3) 
3

>  <fda_drugs_id>  (3) 
AAKJLRGGTJKAMG-UHFFFAOYSA-N

>  <initial_conformation_id>  (3) 
227

>  <minimize_method>  (3) 
MMFF

$$$$

     RDKit          3D

 52 54  0  0  0  0  0  0  0  0999 V2000
   -3.5433   -1.3013   -4.5122 C   0  0  0  0  0  0  0  0  0  0  0  0
   -3.7234    0.0105   -3.9965 O   0  0  0  0  0  0  0  0  0  0  0  0
   -3.8205    0.0435   -2.5728 C   0  0  0  0  0  0  0  0  0  0  0  0
   -2.4483    0.0132   -1.8997 C   0  0  0  0  0  0  0  0  0  0  0  0
   -2.6386    0.0989   -0.4881 O   0  0  0  0  0  0  0  0  0  0  0  0
   -1.5483   -0.0653    0.3188 C   0  0  0  0  0  0  0  0  0  0  0  0
   -0.2257   -0.0630   -0.1277 C   0  0  0  0  0  0  0  0  0  0  0  0
    0.8570   -0.2878    0.7675 C   0  0  0  0  0  0  0  0  0  0  0  0
    0.5941   -0.5047    2.1259 C   0  0  0  0  0  0  0  0  0  0  0  0
   -0.7218   -0.4925    2.5586 C   0  0  0  0  0  0  0  0  0  0  0  0
   -1.7851   -0.2494    1.6848 C   0  0  0  0  0  0  0  0  0  0  0  0
   -3.0276   -0.2749    2.2652 O   0  0  0  0  0  0  0  0  0  0  0  0
   -3.8334    0.8706    1.9632 C   0  0  0  0  0  0  0  0  0  0  0  0
   -4.7105    1.1764    3.1804 C   0  0  0  0  0  0  0  0  0  0  0  0
   -5.6351    2.2368    2.9374 O   0  0  0  0  0  0  0  0  0  0  0  0
   -5.0416    3.5264    3.0131 C   0  0  0  0  0  0  0  0  0  0  0  0
    1.5564   -0.7173    3.0267 N   0  0  0  0  0  0  0  0  0  0  0  0
    2.8138   -0.7000    2.5766 C   0  0  0  0  0  0  0  0  0  0  0  0
    3.1936   -0.5006    1.3129 N   0  0  0  0  0  0  0  0  0  0  0  0
    2.2204   -0.3018    0.4074 C   0  0  0  0  0  0  0  0  0  0  0  0
    2.5726   -0.1123   -0.9576 N   0  0  0  0  0  0  0  0  0  0  0  0
    3.8418    0.2087   -1.4935 C   0  0  0  0  0  0  0  0  0  0  0  0
    4.1220   -0.1255   -2.8274 C   0  0  0  0  0  0  0  0  0  0  0  0
    5.3373    0.2292   -3.4223 C   0  0  0  0  0  0  0  0  0  0  0  0
    6.2825    0.9500   -2.6962 C   0  0  0  0  0  0  0  0  0  0  0  0
    6.0074    1.3228   -1.3798 C   0  0  0  0  0  0  0  0  0  0  0  0
    4.7899    0.9641   -0.7909 C   0  0  0  0  0  0  0  0  0  0  0  0
    6.9652    2.0818   -0.6357 C   0  0  0  0  0  0  0  0  0  0  0  0
    7.7680    2.7182   -0.0090 C   0  0  0  0  0  0  0  0  0  0  0  0
   -4.3507   -1.9622   -4.1813 H   0  0  0  0  0  0  0  0  0  0  0  0
   -2.5742   -1.7082   -4.2099 H   0  0  0  0  0  0  0  0  0  0  0  0
   -3.5668   -1.2453   -5.6045 H   0  0  0  0  0  0  0  0  0  0  0  0
   -4.3262    0.9784   -2.3022 H   0  0  0  0  0  0  0  0  0  0  0  0
   -4.4640   -0.7647   -2.2027 H   0  0  0  0  0  0  0  0  0  0  0  0
   -1.8552    0.8631   -2.2596 H   0  0  0  0  0  0  0  0  0  0  0  0
   -1.9282   -0.9162   -2.1603 H   0  0  0  0  0  0  0  0  0  0  0  0
   -0.0001    0.1258   -1.1711 H   0  0  0  0  0  0  0  0  0  0  0  0
   -0.9301   -0.6650    3.6125 H   0  0  0  0  0  0  0  0  0  0  0  0
   -3.2183    1.7473    1.7220 H   0  0  0  0  0  0  0  0  0  0  0  0
   -4.4773    0.6522    1.1022 H   0  0  0  0  0  0  0  0  0  0  0  0
   -4.0956    1.3916    4.0645 H   0  0  0  0  0  0  0  0  0  0  0  0
   -5.2977    0.2846    3.4309 H   0  0  0  0  0  0  0  0  0  0  0  0
   -4.3180    3.6701    2.2052 H   0  0  0  0  0  0  0  0  0  0  0  0
   -4.5595    3.6740    3.9853 H   0  0  0  0  0  0  0  0  0  0  0  0
   -5.8328    4.2732    2.9022 H   0  0  0  0  0  0  0  0  0  0  0  0
    3.5996   -0.8683    3.3028 H   0  0  0  0  0  0  0  0  0  0  0  0
    2.1002   -0.8123   -1.5172 H   0  0  0  0  0  0  0  0  0  0  0  0
    3.3964   -0.6746   -3.4217 H   0  0  0  0  0  0  0  0  0  0  0  0
    5.5433   -0.0525   -4.4510 H   0  0  0  0  0  0  0  0  0  0  0  0
    7.2247    1.2271   -3.1615 H   0  0  0  0  0  0  0  0  0  0  0  0
    4.5822    1.2892    0.2243 H   0  0  0  0  0  0  0  0  0  0  0  0
    8.4798    3.2832    0.5480 H   0  0  0  0  0  0  0  0  0  0  0  0
  1  2  1  0
  2  3  1  0
  3  4  1  0
  4  5  1  0
  5  6  1  0
  6  7  2  0
  7  8  1  0
  8  9  2  0
  9 10  1  0
 10 11  2  0
 11 12  1  0
 12 13  1  0
 13 14  1  0
 14 15  1  0
 15 16  1  0
  9 17  1  0
 17 18  2  0
 18 19  1  0
 19 20  2  0
 20 21  1  0
 21 22  1  0
 22 23  2  0
 23 24  1  0
 24 25  2  0
 25 26  1  0
 26 27  2  0
 26 28  1  0
 28 29  3  0
 11  6  1  0
 20  8  1  0
 27 22  1  0
  1 30  1  0
  1 31  1  0
  1 32  1  0
  3 33  1  0
  3 34  1  0
  4 35  1  0
  4 36  1  0
  7 37  1  0
 10 38  1  0
 13 39  1  0
 13 40  1  0
 14 41  1  0
 14 42  1  0
 16 43  1  0
 16 44  1  0
 16 45  1  0
 18 46  1  0
 21 47  1  0
 23 48  1  0
 24 49  1  0
 25 50  1  0
 27 51  1  0
 29 52  1  0
M  END
>  <energy_abs>  (4) 
59.06128690516343

>  <SMILES>  (4) 
COCCOc1cc2c(cc1OCCOC)ncnc2Nc3cccc(c3)C#C

>  <cluster_no>  (4) 
4

>  <fda_drugs_id>  (4) 
AAKJLRGGTJKAMG-UHFFFAOYSA-N

>  <initial_conformation_id>  (4) 
226

>  <minimize_method>  (4) 
MMFF

$$$$

     RDKit          3D

 52 54  0  0  0  0  0  0  0  0999 V2000
   -4.0827   -4.9262   -0.6363 C   0  0  0  0  0  0  0  0  0  0  0  0
   -2.9929   -4.0155   -0.5998 O   0  0  0  0  0  0  0  0  0  0  0  0
   -2.7757   -3.5051    0.7199 C   0  0  0  0  0  0  0  0  0  0  0  0
   -1.6580   -2.4644    0.6877 C   0  0  0  0  0  0  0  0  0  0  0  0
   -2.1569   -1.2770    0.0497 O   0  0  0  0  0  0  0  0  0  0  0  0
   -1.3919   -0.1851    0.3493 C   0  0  0  0  0  0  0  0  0  0  0  0
   -0.0868   -0.0824   -0.1262 C   0  0  0  0  0  0  0  0  0  0  0  0
    0.7063    1.0543    0.1781 C   0  0  0  0  0  0  0  0  0  0  0  0
    0.1690    2.0751    0.9782 C   0  0  0  0  0  0  0  0  0  0  0  0
   -1.1417    1.9600    1.4227 C   0  0  0  0  0  0  0  0  0  0  0  0
   -1.9340    0.8600    1.0915 C   0  0  0  0  0  0  0  0  0  0  0  0
   -3.2081    0.8451    1.5942 O   0  0  0  0  0  0  0  0  0  0  0  0
   -4.1942    0.8409    0.5481 C   0  0  0  0  0  0  0  0  0  0  0  0
   -5.4719    1.4878    1.0811 C   0  0  0  0  0  0  0  0  0  0  0  0
   -5.2714    2.8987    1.2158 O   0  0  0  0  0  0  0  0  0  0  0  0
   -6.4138    3.5422    1.7650 C   0  0  0  0  0  0  0  0  0  0  0  0
    0.8660    3.1596    1.3252 N   0  0  0  0  0  0  0  0  0  0  0  0
    2.1215    3.2374    0.8738 C   0  0  0  0  0  0  0  0  0  0  0  0
    2.7392    2.3419    0.1003 N   0  0  0  0  0  0  0  0  0  0  0  0
    2.0320    1.2560   -0.2588 C   0  0  0  0  0  0  0  0  0  0  0  0
    2.6258    0.2848   -1.1130 N   0  0  0  0  0  0  0  0  0  0  0  0
    3.9822    0.1508   -1.4892 C   0  0  0  0  0  0  0  0  0  0  0  0
    4.2892   -0.5238   -2.6817 C   0  0  0  0  0  0  0  0  0  0  0  0
    5.6135   -0.7382   -3.0721 C   0  0  0  0  0  0  0  0  0  0  0  0
    6.6562   -0.3018   -2.2594 C   0  0  0  0  0  0  0  0  0  0  0  0
    6.3726    0.3358   -1.0523 C   0  0  0  0  0  0  0  0  0  0  0  0
    5.0439    0.5469   -0.6667 C   0  0  0  0  0  0  0  0  0  0  0  0
    7.4424    0.7663   -0.2037 C   0  0  0  0  0  0  0  0  0  0  0  0
    8.3391    1.1303    0.5081 C   0  0  0  0  0  0  0  0  0  0  0  0
   -4.1893   -5.2955   -1.6599 H   0  0  0  0  0  0  0  0  0  0  0  0
   -3.8948   -5.7765    0.0258 H   0  0  0  0  0  0  0  0  0  0  0  0
   -5.0111   -4.4229   -0.3484 H   0  0  0  0  0  0  0  0  0  0  0  0
   -3.7022   -3.0516    1.0914 H   0  0  0  0  0  0  0  0  0  0  0  0
   -2.4850   -4.3354    1.3724 H   0  0  0  0  0  0  0  0  0  0  0  0
   -0.8060   -2.8496    0.1156 H   0  0  0  0  0  0  0  0  0  0  0  0
   -1.3486   -2.2437    1.7172 H   0  0  0  0  0  0  0  0  0  0  0  0
    0.3183   -0.8901   -0.7302 H   0  0  0  0  0  0  0  0  0  0  0  0
   -1.5680    2.7559    2.0304 H   0  0  0  0  0  0  0  0  0  0  0  0
   -3.8416    1.3951   -0.3316 H   0  0  0  0  0  0  0  0  0  0  0  0
   -4.4127   -0.1953    0.2743 H   0  0  0  0  0  0  0  0  0  0  0  0
   -5.7289    1.0644    2.0592 H   0  0  0  0  0  0  0  0  0  0  0  0
   -6.2933    1.3146    0.3775 H   0  0  0  0  0  0  0  0  0  0  0  0
   -7.2764    3.4221    1.1006 H   0  0  0  0  0  0  0  0  0  0  0  0
   -6.1941    4.6094    1.8646 H   0  0  0  0  0  0  0  0  0  0  0  0
   -6.6409    3.1382    2.7575 H   0  0  0  0  0  0  0  0  0  0  0  0
    2.6926    4.1131    1.1608 H   0  0  0  0  0  0  0  0  0  0  0  0
    2.0095    0.1263   -1.9032 H   0  0  0  0  0  0  0  0  0  0  0  0
    3.4941   -0.8873   -3.3272 H   0  0  0  0  0  0  0  0  0  0  0  0
    5.8296   -1.2494   -4.0058 H   0  0  0  0  0  0  0  0  0  0  0  0
    7.6854   -0.4699   -2.5649 H   0  0  0  0  0  0  0  0  0  0  0  0
    4.8441    1.0213    0.2900 H   0  0  0  0  0  0  0  0  0  0  0  0
    9.1298    1.4573    1.1403 H   0  0  0  0  0  0  0  0  0  0  0  0
  1  2  1  0
  2  3  1  0
  3  4  1  0
  4  5  1  0
  5  6  1  0
  6  7  2  0
  7  8  1  0
  8  9  2  0
  9 10  1  0
 10 11  2  0
 11 12  1  0
 12 13  1  0
 13 14  1  0
 14 15  1  0
 15 16  1  0
  9 17  1  0
 17 18  2  0
 18 19  1  0
 19 20  2  0
 20 21  1  0
 21 22  1  0
 22 23  2  0
 23 24  1  0
 24 25  2  0
 25 26  1  0
 26 27  2  0
 26 28  1  0
 28 29  3  0
 11  6  1  0
 20  8  1  0
 27 22  1  0
  1 30  1  0
  1 31  1  0
  1 32  1  0
  3 33  1  0
  3 34  1  0
  4 35  1  0
  4 36  1  0
  7 37  1  0
 10 38  1  0
 13 39  1  0
 13 40  1  0
 14 41  1  0
 14 42  1  0
 16 43  1  0
 16 44  1  0
 16 45  1  0
 18 46  1  0
 21 47  1  0
 23 48  1  0
 24 49  1  0
 25 50  1  0
 27 51  1  0
 29 52  1  0
M  END
>  <energy_abs>  (5) 
58.197497293697886

>  <SMILES>  (5) 
COCCOc1cc2c(cc1OCCOC)ncnc2Nc3cccc(c3)C#C

>  <cluster_no>  (5) 
5

>  <fda_drugs_id>  (5) 
AAKJLRGGTJKAMG-UHFFFAOYSA-N

>  <initial_conformation_id>  (5) 
121

>  <minimize_method>  (5) 
MMFF

$$$$

     RDKit          3D

 52 54  0  0  0  0  0  0  0  0999 V2000
   -2.8303   -5.9195    1.1001 C   0  0  0  0  0  0  0  0  0  0  0  0
   -1.9113   -4.8472    0.9341 O   0  0  0  0  0  0  0  0  0  0  0  0
   -2.5823   -3.6336    0.5938 C   0  0  0  0  0  0  0  0  0  0  0  0
   -1.5544   -2.5190    0.4291 C   0  0  0  0  0  0  0  0  0  0  0  0
   -2.2406   -1.3162    0.0933 O   0  0  0  0  0  0  0  0  0  0  0  0
   -1.5092   -0.1598    0.0071 C   0  0  0  0  0  0  0  0  0  0  0  0
   -0.1163   -0.0967    0.0741 C   0  0  0  0  0  0  0  0  0  0  0  0
    0.5656    1.1431   -0.0271 C   0  0  0  0  0  0  0  0  0  0  0  0
   -0.1722    2.3165   -0.2203 C   0  0  0  0  0  0  0  0  0  0  0  0
   -1.5577    2.2390   -0.2879 C   0  0  0  0  0  0  0  0  0  0  0  0
   -2.2410    1.0240   -0.1776 C   0  0  0  0  0  0  0  0  0  0  0  0
   -3.6033    0.8805   -0.2281 O   0  0  0  0  0  0  0  0  0  0  0  0
   -4.4318    2.0129   -0.4940 C   0  0  0  0  0  0  0  0  0  0  0  0
   -4.7828    2.7828    0.7849 C   0  0  0  0  0  0  0  0  0  0  0  0
   -5.4633    1.9981    1.7688 O   0  0  0  0  0  0  0  0  0  0  0  0
   -6.7934    1.6547    1.4108 C   0  0  0  0  0  0  0  0  0  0  0  0
    0.3991    3.5170   -0.3453 N   0  0  0  0  0  0  0  0  0  0  0  0
    1.7341    3.5566   -0.2856 C   0  0  0  0  0  0  0  0  0  0  0  0
    2.5452    2.5135   -0.1002 N   0  0  0  0  0  0  0  0  0  0  0  0
    1.9650    1.3085    0.0394 C   0  0  0  0  0  0  0  0  0  0  0  0
    2.7783    0.1676    0.2829 N   0  0  0  0  0  0  0  0  0  0  0  0
    4.1783    0.0381    0.1311 C   0  0  0  0  0  0  0  0  0  0  0  0
    4.8516   -0.9526    0.8642 C   0  0  0  0  0  0  0  0  0  0  0  0
    6.2233   -1.1654    0.7022 C   0  0  0  0  0  0  0  0  0  0  0  0
    6.9407   -0.4049   -0.2181 C   0  0  0  0  0  0  0  0  0  0  0  0
    6.2830    0.5576   -0.9833 C   0  0  0  0  0  0  0  0  0  0  0  0
    4.9091    0.7661   -0.8167 C   0  0  0  0  0  0  0  0  0  0  0  0
    7.0122    1.3245   -1.9469 C   0  0  0  0  0  0  0  0  0  0  0  0
    7.6232    1.9684   -2.7557 C   0  0  0  0  0  0  0  0  0  0  0  0
   -3.5307   -5.7014    1.9121 H   0  0  0  0  0  0  0  0  0  0  0  0
   -2.2659   -6.8196    1.3580 H   0  0  0  0  0  0  0  0  0  0  0  0
   -3.3761   -6.1036    0.1698 H   0  0  0  0  0  0  0  0  0  0  0  0
   -3.1437   -3.7634   -0.3393 H   0  0  0  0  0  0  0  0  0  0  0  0
   -3.2981   -3.3666    1.3807 H   0  0  0  0  0  0  0  0  0  0  0  0
   -0.9992   -2.4038    1.3686 H   0  0  0  0  0  0  0  0  0  0  0  0
   -0.8505   -2.7948   -0.3656 H   0  0  0  0  0  0  0  0  0  0  0  0
    0.4693   -1.0035    0.1828 H   0  0  0  0  0  0  0  0  0  0  0  0
   -2.0879    3.1750   -0.4266 H   0  0  0  0  0  0  0  0  0  0  0  0
   -3.9942    2.6685   -1.2550 H   0  0  0  0  0  0  0  0  0  0  0  0
   -5.3465    1.6143   -0.9445 H   0  0  0  0  0  0  0  0  0  0  0  0
   -5.3858    3.6659    0.5445 H   0  0  0  0  0  0  0  0  0  0  0  0
   -3.8667    3.1367    1.2673 H   0  0  0  0  0  0  0  0  0  0  0  0
   -7.2726    1.1968    2.2805 H   0  0  0  0  0  0  0  0  0  0  0  0
   -6.8013    0.9245    0.5976 H   0  0  0  0  0  0  0  0  0  0  0  0
   -7.3643    2.5446    1.1291 H   0  0  0  0  0  0  0  0  0  0  0  0
    2.2028    4.5286   -0.3952 H   0  0  0  0  0  0  0  0  0  0  0  0
    2.4569   -0.2836    1.1333 H   0  0  0  0  0  0  0  0  0  0  0  0
    4.3125   -1.5709    1.5775 H   0  0  0  0  0  0  0  0  0  0  0  0
    6.7289   -1.9277    1.2890 H   0  0  0  0  0  0  0  0  0  0  0  0
    8.0073   -0.5740   -0.3431 H   0  0  0  0  0  0  0  0  0  0  0  0
    4.4094    1.5016   -1.4416 H   0  0  0  0  0  0  0  0  0  0  0  0
    8.1628    2.5409   -3.4733 H   0  0  0  0  0  0  0  0  0  0  0  0
  1  2  1  0
  2  3  1  0
  3  4  1  0
  4  5  1  0
  5  6  1  0
  6  7  2  0
  7  8  1  0
  8  9  2  0
  9 10  1  0
 10 11  2  0
 11 12  1  0
 12 13  1  0
 13 14  1  0
 14 15  1  0
 15 16  1  0
  9 17  1  0
 17 18  2  0
 18 19  1  0
 19 20  2  0
 20 21  1  0
 21 22  1  0
 22 23  2  0
 23 24  1  0
 24 25  2  0
 25 26  1  0
 26 27  2  0
 26 28  1  0
 28 29  3  0
 11  6  1  0
 20  8  1  0
 27 22  1  0
  1 30  1  0
  1 31  1  0
  1 32  1  0
  3 33  1  0
  3 34  1  0
  4 35  1  0
  4 36  1  0
  7 37  1  0
 10 38  1  0
 13 39  1  0
 13 40  1  0
 14 41  1  0
 14 42  1  0
 16 43  1  0
 16 44  1  0
 16 45  1  0
 18 46  1  0
 21 47  1  0
 23 48  1  0
 24 49  1  0
 25 50  1  0
 27 51  1  0
 29 52  1  0
M  END
>  <energy_abs>  (6) 
61.210614180992856

>  <SMILES>  (6) 
COCCOc1cc2c(cc1OCCOC)ncnc2Nc3cccc(c3)C#C

>  <cluster_no>  (6) 
6

>  <fda_drugs_id>  (6) 
AAKJLRGGTJKAMG-UHFFFAOYSA-N

>  <initial_conformation_id>  (6) 
61

>  <minimize_method>  (6) 
MMFF

$$$$

     RDKit          3D

 52 54  0  0  0  0  0  0  0  0999 V2000
   -0.9482   -5.2129    1.7573 C   0  0  0  0  0  0  0  0  0  0  0  0
   -1.4026   -4.9321    0.4394 O   0  0  0  0  0  0  0  0  0  0  0  0
   -2.1429   -3.7137    0.3563 C   0  0  0  0  0  0  0  0  0  0  0  0
   -1.2273   -2.4980    0.2109 C   0  0  0  0  0  0  0  0  0  0  0  0
   -2.0417   -1.3334    0.0919 O   0  0  0  0  0  0  0  0  0  0  0  0
   -1.4171   -0.1133    0.0749 C   0  0  0  0  0  0  0  0  0  0  0  0
   -0.0420    0.0726   -0.0761 C   0  0  0  0  0  0  0  0  0  0  0  0
    0.5228    1.3745   -0.0923 C   0  0  0  0  0  0  0  0  0  0  0  0
   -0.3140    2.4869    0.0586 C   0  0  0  0  0  0  0  0  0  0  0  0
   -1.6812    2.2880    0.2006 C   0  0  0  0  0  0  0  0  0  0  0  0
   -2.2480    1.0093    0.2081 C   0  0  0  0  0  0  0  0  0  0  0  0
   -3.5895    0.7515    0.3447 O   0  0  0  0  0  0  0  0  0  0  0  0
   -4.4606    1.8557    0.5820 C   0  0  0  0  0  0  0  0  0  0  0  0
   -5.8773    1.3179    0.7821 C   0  0  0  0  0  0  0  0  0  0  0  0
   -6.8103    2.3564    1.0827 O   0  0  0  0  0  0  0  0  0  0  0  0
   -7.2841    3.0304   -0.0752 C   0  0  0  0  0  0  0  0  0  0  0  0
    0.1457    3.7401    0.0729 N   0  0  0  0  0  0  0  0  0  0  0  0
    1.4668    3.8980   -0.0565 C   0  0  0  0  0  0  0  0  0  0  0  0
    2.3648    2.9230   -0.2104 N   0  0  0  0  0  0  0  0  0  0  0  0
    1.8963    1.6626   -0.2386 C   0  0  0  0  0  0  0  0  0  0  0  0
    2.8040    0.5860   -0.4369 N   0  0  0  0  0  0  0  0  0  0  0  0
    4.2137    0.5915   -0.3253 C   0  0  0  0  0  0  0  0  0  0  0  0
    4.9022    1.4576    0.5330 C   0  0  0  0  0  0  0  0  0  0  0  0
    6.2923    1.3865    0.6707 C   0  0  0  0  0  0  0  0  0  0  0  0
    7.0155    0.4267   -0.0337 C   0  0  0  0  0  0  0  0  0  0  0  0
    6.3452   -0.4724   -0.8614 C   0  0  0  0  0  0  0  0  0  0  0  0
    4.9537   -0.3974   -0.9939 C   0  0  0  0  0  0  0  0  0  0  0  0
    7.0799   -1.4753   -1.5704 C   0  0  0  0  0  0  0  0  0  0  0  0
    7.7028   -2.3122   -2.1657 C   0  0  0  0  0  0  0  0  0  0  0  0
   -1.7960   -5.3058    2.4428 H   0  0  0  0  0  0  0  0  0  0  0  0
   -0.2615   -4.4382    2.1086 H   0  0  0  0  0  0  0  0  0  0  0  0
   -0.4126   -6.1661    1.7384 H   0  0  0  0  0  0  0  0  0  0  0  0
   -2.8203   -3.6035    1.2124 H   0  0  0  0  0  0  0  0  0  0  0  0
   -2.7841   -3.7816   -0.5305 H   0  0  0  0  0  0  0  0  0  0  0  0
   -0.6052   -2.6269   -0.6834 H   0  0  0  0  0  0  0  0  0  0  0  0
   -0.5738   -2.4188    1.0876 H   0  0  0  0  0  0  0  0  0  0  0  0
    0.6197   -0.7810   -0.1759 H   0  0  0  0  0  0  0  0  0  0  0  0
   -2.2966    3.1765    0.3072 H   0  0  0  0  0  0  0  0  0  0  0  0
   -4.1591    2.4041    1.4829 H   0  0  0  0  0  0  0  0  0  0  0  0
   -4.4408    2.5402   -0.2730 H   0  0  0  0  0  0  0  0  0  0  0  0
   -6.2074    0.7302   -0.0836 H   0  0  0  0  0  0  0  0  0  0  0  0
   -5.8752    0.6259    1.6325 H   0  0  0  0  0  0  0  0  0  0  0  0
   -7.7838    2.3288   -0.7502 H   0  0  0  0  0  0  0  0  0  0  0  0
   -6.4676    3.5377   -0.5958 H   0  0  0  0  0  0  0  0  0  0  0  0
   -8.0111    3.7836    0.2418 H   0  0  0  0  0  0  0  0  0  0  0  0
    1.8448    4.9144   -0.0352 H   0  0  0  0  0  0  0  0  0  0  0  0
    2.4999    0.0479   -1.2422 H   0  0  0  0  0  0  0  0  0  0  0  0
    4.3641    2.2016    1.1144 H   0  0  0  0  0  0  0  0  0  0  0  0
    6.8052    2.0790    1.3326 H   0  0  0  0  0  0  0  0  0  0  0  0
    8.0952    0.3756    0.0794 H   0  0  0  0  0  0  0  0  0  0  0  0
    4.4469   -1.1188   -1.6303 H   0  0  0  0  0  0  0  0  0  0  0  0
    8.2594   -3.0528   -2.6922 H   0  0  0  0  0  0  0  0  0  0  0  0
  1  2  1  0
  2  3  1  0
  3  4  1  0
  4  5  1  0
  5  6  1  0
  6  7  2  0
  7  8  1  0
  8  9  2  0
  9 10  1  0
 10 11  2  0
 11 12  1  0
 12 13  1  0
 13 14  1  0
 14 15  1  0
 15 16  1  0
  9 17  1  0
 17 18  2  0
 18 19  1  0
 19 20  2  0
 20 21  1  0
 21 22  1  0
 22 23  2  0
 23 24  1  0
 24 25  2  0
 25 26  1  0
 26 27  2  0
 26 28  1  0
 28 29  3  0
 11  6  1  0
 20  8  1  0
 27 22  1  0
  1 30  1  0
  1 31  1  0
  1 32  1  0
  3 33  1  0
  3 34  1  0
  4 35  1  0
  4 36  1  0
  7 37  1  0
 10 38  1  0
 13 39  1  0
 13 40  1  0
 14 41  1  0
 14 42  1  0
 16 43  1  0
 16 44  1  0
 16 45  1  0
 18 46  1  0
 21 47  1  0
 23 48  1  0
 24 49  1  0
 25 50  1  0
 27 51  1  0
 29 52  1  0
M  END
>  <energy_abs>  (7) 
58.40611409572916

>  <SMILES>  (7) 
COCCOc1cc2c(cc1OCCOC)ncnc2Nc3cccc(c3)C#C

>  <cluster_no>  (7) 
7

>  <fda_drugs_id>  (7) 
AAKJLRGGTJKAMG-UHFFFAOYSA-N

>  <initial_conformation_id>  (7) 
55

>  <minimize_method>  (7) 
MMFF

$$$$

     RDKit          3D

 52 54  0  0  0  0  0  0  0  0999 V2000
   -1.2122   -4.4759   -3.3532 C   0  0  0  0  0  0  0  0  0  0  0  0
   -0.5174   -3.2611   -3.1021 O   0  0  0  0  0  0  0  0  0  0  0  0
   -1.3622   -2.2330   -2.5839 C   0  0  0  0  0  0  0  0  0  0  0  0
   -1.5833   -2.3844   -1.0793 C   0  0  0  0  0  0  0  0  0  0  0  0
   -2.3155   -1.2766   -0.5591 O   0  0  0  0  0  0  0  0  0  0  0  0
   -1.6252   -0.2704    0.0653 C   0  0  0  0  0  0  0  0  0  0  0  0
   -0.2691   -0.0041   -0.1301 C   0  0  0  0  0  0  0  0  0  0  0  0
    0.3719    1.0663    0.5453 C   0  0  0  0  0  0  0  0  0  0  0  0
   -0.3772    1.8812    1.4020 C   0  0  0  0  0  0  0  0  0  0  0  0
   -1.7298    1.6149    1.5754 C   0  0  0  0  0  0  0  0  0  0  0  0
   -2.3696    0.5595    0.9174 C   0  0  0  0  0  0  0  0  0  0  0  0
   -3.6964    0.2399    1.0543 O   0  0  0  0  0  0  0  0  0  0  0  0
   -4.5646    1.1424    1.7368 C   0  0  0  0  0  0  0  0  0  0  0  0
   -4.6550    0.8014    3.2216 C   0  0  0  0  0  0  0  0  0  0  0  0
   -5.5212    1.7339    3.8674 O   0  0  0  0  0  0  0  0  0  0  0  0
   -5.6490    1.4535    5.2553 C   0  0  0  0  0  0  0  0  0  0  0  0
    0.1525    2.9129    2.0632 N   0  0  0  0  0  0  0  0  0  0  0  0
    1.4514    3.1546    1.8609 C   0  0  0  0  0  0  0  0  0  0  0  0
    2.2689    2.4545    1.0721 N   0  0  0  0  0  0  0  0  0  0  0  0
    1.7361    1.4054    0.4208 C   0  0  0  0  0  0  0  0  0  0  0  0
    2.5680    0.6021   -0.4061 N   0  0  0  0  0  0  0  0  0  0  0  0
    3.8661    0.8823   -0.8916 C   0  0  0  0  0  0  0  0  0  0  0  0
    4.3224    2.1843   -1.1297 C   0  0  0  0  0  0  0  0  0  0  0  0
    5.5882    2.4189   -1.6755 C   0  0  0  0  0  0  0  0  0  0  0  0
    6.4104    1.3480   -2.0178 C   0  0  0  0  0  0  0  0  0  0  0  0
    5.9602    0.0431   -1.8253 C   0  0  0  0  0  0  0  0  0  0  0  0
    4.6924   -0.1857   -1.2783 C   0  0  0  0  0  0  0  0  0  0  0  0
    6.7906   -1.0628   -2.1936 C   0  0  0  0  0  0  0  0  0  0  0  0
    7.4872   -1.9906   -2.5031 C   0  0  0  0  0  0  0  0  0  0  0  0
   -0.5056   -5.1903   -3.7845 H   0  0  0  0  0  0  0  0  0  0  0  0
   -2.0227   -4.3141   -4.0703 H   0  0  0  0  0  0  0  0  0  0  0  0
   -1.6066   -4.8996   -2.4258 H   0  0  0  0  0  0  0  0  0  0  0  0
   -2.3171   -2.1979   -3.1228 H   0  0  0  0  0  0  0  0  0  0  0  0
   -0.8681   -1.2780   -2.7909 H   0  0  0  0  0  0  0  0  0  0  0  0
   -2.1978   -3.2735   -0.8977 H   0  0  0  0  0  0  0  0  0  0  0  0
   -0.6482   -2.5773   -0.5391 H   0  0  0  0  0  0  0  0  0  0  0  0
    0.3107   -0.5970   -0.8300 H   0  0  0  0  0  0  0  0  0  0  0  0
   -2.2705    2.2672    2.2543 H   0  0  0  0  0  0  0  0  0  0  0  0
   -5.5609    1.0190    1.2943 H   0  0  0  0  0  0  0  0  0  0  0  0
   -4.3148    2.1953    1.5592 H   0  0  0  0  0  0  0  0  0  0  0  0
   -3.6636    0.8342    3.6868 H   0  0  0  0  0  0  0  0  0  0  0  0
   -5.0425   -0.2174    3.3426 H   0  0  0  0  0  0  0  0  0  0  0  0
   -6.3208    2.1949    5.6959 H   0  0  0  0  0  0  0  0  0  0  0  0
   -6.0785    0.4585    5.4070 H   0  0  0  0  0  0  0  0  0  0  0  0
   -4.6763    1.5245    5.7515 H   0  0  0  0  0  0  0  0  0  0  0  0
    1.8826    3.9980    2.3892 H   0  0  0  0  0  0  0  0  0  0  0  0
    2.4856   -0.3663   -0.1145 H   0  0  0  0  0  0  0  0  0  0  0  0
    3.6930    3.0395   -0.8985 H   0  0  0  0  0  0  0  0  0  0  0  0
    5.9247    3.4392   -1.8393 H   0  0  0  0  0  0  0  0  0  0  0  0
    7.3924    1.5373   -2.4436 H   0  0  0  0  0  0  0  0  0  0  0  0
    4.3515   -1.2104   -1.1523 H   0  0  0  0  0  0  0  0  0  0  0  0
    8.1057   -2.8126   -2.7788 H   0  0  0  0  0  0  0  0  0  0  0  0
  1  2  1  0
  2  3  1  0
  3  4  1  0
  4  5  1  0
  5  6  1  0
  6  7  2  0
  7  8  1  0
  8  9  2  0
  9 10  1  0
 10 11  2  0
 11 12  1  0
 12 13  1  0
 13 14  1  0
 14 15  1  0
 15 16  1  0
  9 17  1  0
 17 18  2  0
 18 19  1  0
 19 20  2  0
 20 21  1  0
 21 22  1  0
 22 23  2  0
 23 24  1  0
 24 25  2  0
 25 26  1  0
 26 27  2  0
 26 28  1  0
 28 29  3  0
 11  6  1  0
 20  8  1  0
 27 22  1  0
  1 30  1  0
  1 31  1  0
  1 32  1  0
  3 33  1  0
  3 34  1  0
  4 35  1  0
  4 36  1  0
  7 37  1  0
 10 38  1  0
 13 39  1  0
 13 40  1  0
 14 41  1  0
 14 42  1  0
 16 43  1  0
 16 44  1  0
 16 45  1  0
 18 46  1  0
 21 47  1  0
 23 48  1  0
 24 49  1  0
 25 50  1  0
 27 51  1  0
 29 52  1  0
M  END
>  <energy_abs>  (8) 
60.41589817048159

>  <SMILES>  (8) 
COCCOc1cc2c(cc1OCCOC)ncnc2Nc3cccc(c3)C#C

>  <cluster_no>  (8) 
8

>  <fda_drugs_id>  (8) 
AAKJLRGGTJKAMG-UHFFFAOYSA-N

>  <initial_conformation_id>  (8) 
297

>  <minimize_method>  (8) 
MMFF

$$$$

     RDKit          3D

 52 54  0  0  0  0  0  0  0  0999 V2000
   -3.3802   -4.8079   -2.5161 C   0  0  0  0  0  0  0  0  0  0  0  0
   -2.3997   -3.9421   -1.9608 O   0  0  0  0  0  0  0  0  0  0  0  0
   -2.4027   -2.6614   -2.6021 C   0  0  0  0  0  0  0  0  0  0  0  0
   -1.4054   -1.7394   -1.9001 C   0  0  0  0  0  0  0  0  0  0  0  0
   -1.9901   -1.2818   -0.6764 O   0  0  0  0  0  0  0  0  0  0  0  0
   -1.3285   -0.2974    0.0098 C   0  0  0  0  0  0  0  0  0  0  0  0
    0.0189    0.0186   -0.1670 C   0  0  0  0  0  0  0  0  0  0  0  0
    0.6360    1.0452    0.5943 C   0  0  0  0  0  0  0  0  0  0  0  0
   -0.1267    1.7643    1.5225 C   0  0  0  0  0  0  0  0  0  0  0  0
   -1.4635    1.4312    1.6972 C   0  0  0  0  0  0  0  0  0  0  0  0
   -2.0698    0.3994    0.9731 C   0  0  0  0  0  0  0  0  0  0  0  0
   -3.3931    0.0587    1.0939 O   0  0  0  0  0  0  0  0  0  0  0  0
   -4.0082    0.2465    2.3689 C   0  0  0  0  0  0  0  0  0  0  0  0
   -4.9508    1.4488    2.3301 C   0  0  0  0  0  0  0  0  0  0  0  0
   -5.5148    1.7370    3.6098 O   0  0  0  0  0  0  0  0  0  0  0  0
   -6.6002    0.8829    3.9461 C   0  0  0  0  0  0  0  0  0  0  0  0
    0.3772    2.7635    2.2507 N   0  0  0  0  0  0  0  0  0  0  0  0
    1.6655    3.0609    2.0555 C   0  0  0  0  0  0  0  0  0  0  0  0
    2.4965    2.4461    1.2114 N   0  0  0  0  0  0  0  0  0  0  0  0
    1.9886    1.4319    0.4888 C   0  0  0  0  0  0  0  0  0  0  0  0
    2.8380    0.7112   -0.3959 N   0  0  0  0  0  0  0  0  0  0  0  0
    4.1223    1.0670   -0.8682 C   0  0  0  0  0  0  0  0  0  0  0  0
    4.5279    2.3975   -1.0303 C   0  0  0  0  0  0  0  0  0  0  0  0
    5.7794    2.7116   -1.5687 C   0  0  0  0  0  0  0  0  0  0  0  0
    6.6379    1.6945   -1.9799 C   0  0  0  0  0  0  0  0  0  0  0  0
    6.2384    0.3643   -1.8631 C   0  0  0  0  0  0  0  0  0  0  0  0
    4.9846    0.0556   -1.3228 C   0  0  0  0  0  0  0  0  0  0  0  0
    7.1063   -0.6857   -2.3019 C   0  0  0  0  0  0  0  0  0  0  0  0
    7.8350   -1.5667   -2.6694 C   0  0  0  0  0  0  0  0  0  0  0  0
   -3.3224   -5.7700   -1.9996 H   0  0  0  0  0  0  0  0  0  0  0  0
   -3.1888   -4.9703   -3.5815 H   0  0  0  0  0  0  0  0  0  0  0  0
   -4.3830   -4.3936   -2.3717 H   0  0  0  0  0  0  0  0  0  0  0  0
   -2.1025   -2.7979   -3.6469 H   0  0  0  0  0  0  0  0  0  0  0  0
   -3.4112   -2.2339   -2.5599 H   0  0  0  0  0  0  0  0  0  0  0  0
   -0.4844   -2.2929   -1.6848 H   0  0  0  0  0  0  0  0  0  0  0  0
   -1.1994   -0.8810   -2.5499 H   0  0  0  0  0  0  0  0  0  0  0  0
    0.6145   -0.5176   -0.8975 H   0  0  0  0  0  0  0  0  0  0  0  0
   -2.0318    2.0194    2.4119 H   0  0  0  0  0  0  0  0  0  0  0  0
   -3.2926    0.3119    3.1979 H   0  0  0  0  0  0  0  0  0  0  0  0
   -4.5895   -0.6607    2.5690 H   0  0  0  0  0  0  0  0  0  0  0  0
   -5.7381    1.3092    1.5790 H   0  0  0  0  0  0  0  0  0  0  0  0
   -4.3950    2.3389    2.0167 H   0  0  0  0  0  0  0  0  0  0  0  0
   -7.0061    1.2096    4.9076 H   0  0  0  0  0  0  0  0  0  0  0  0
   -7.3924    0.9520    3.1943 H   0  0  0  0  0  0  0  0  0  0  0  0
   -6.2655   -0.1529    4.0495 H   0  0  0  0  0  0  0  0  0  0  0  0
    2.0754    3.8770    2.6406 H   0  0  0  0  0  0  0  0  0  0  0  0
    2.7949   -0.2739   -0.1535 H   0  0  0  0  0  0  0  0  0  0  0  0
    3.8692    3.2130   -0.7427 H   0  0  0  0  0  0  0  0  0  0  0  0
    6.0769    3.7519   -1.6715 H   0  0  0  0  0  0  0  0  0  0  0  0
    7.6090    1.9458   -2.3988 H   0  0  0  0  0  0  0  0  0  0  0  0
    4.6841   -0.9870   -1.2540 H   0  0  0  0  0  0  0  0  0  0  0  0
    8.4829   -2.3468   -2.9950 H   0  0  0  0  0  0  0  0  0  0  0  0
  1  2  1  0
  2  3  1  0
  3  4  1  0
  4  5  1  0
  5  6  1  0
  6  7  2  0
  7  8  1  0
  8  9  2  0
  9 10  1  0
 10 11  2  0
 11 12  1  0
 12 13  1  0
 13 14  1  0
 14 15  1  0
 15 16  1  0
  9 17  1  0
 17 18  2  0
 18 19  1  0
 19 20  2  0
 20 21  1  0
 21 22  1  0
 22 23  2  0
 23 24  1  0
 24 25  2  0
 25 26  1  0
 26 27  2  0
 26 28  1  0
 28 29  3  0
 11  6  1  0
 20  8  1  0
 27 22  1  0
  1 30  1  0
  1 31  1  0
  1 32  1  0
  3 33  1  0
  3 34  1  0
  4 35  1  0
  4 36  1  0
  7 37  1  0
 10 38  1  0
 13 39  1  0
 13 40  1  0
 14 41  1  0
 14 42  1  0
 16 43  1  0
 16 44  1  0
 16 45  1  0
 18 46  1  0
 21 47  1  0
 23 48  1  0
 24 49  1  0
 25 50  1  0
 27 51  1  0
 29 52  1  0
M  END
>  <energy_abs>  (9) 
60.67689053411174

>  <SMILES>  (9) 
COCCOc1cc2c(cc1OCCOC)ncnc2Nc3cccc(c3)C#C

>  <cluster_no>  (9) 
9

>  <fda_drugs_id>  (9) 
AAKJLRGGTJKAMG-UHFFFAOYSA-N

>  <initial_conformation_id>  (9) 
296

>  <minimize_method>  (9) 
MMFF

$$$$

     RDKit          3D

 52 54  0  0  0  0  0  0  0  0999 V2000
   -3.7161   -5.1035   -0.6163 C   0  0  0  0  0  0  0  0  0  0  0  0
   -3.7241   -4.2648   -1.7634 O   0  0  0  0  0  0  0  0  0  0  0  0
   -2.5791   -3.4164   -1.8493 C   0  0  0  0  0  0  0  0  0  0  0  0
   -2.6574   -2.2238   -0.8945 C   0  0  0  0  0  0  0  0  0  0  0  0
   -1.5856   -1.3336   -1.2008 O   0  0  0  0  0  0  0  0  0  0  0  0
   -1.2250   -0.4324   -0.2392 C   0  0  0  0  0  0  0  0  0  0  0  0
    0.0972    0.0070   -0.3467 C   0  0  0  0  0  0  0  0  0  0  0  0
    0.6497    0.9423    0.5663 C   0  0  0  0  0  0  0  0  0  0  0  0
   -0.1466    1.4267    1.6107 C   0  0  0  0  0  0  0  0  0  0  0  0
   -1.4604    0.9912    1.7020 C   0  0  0  0  0  0  0  0  0  0  0  0
   -2.0166    0.1022    0.7732 C   0  0  0  0  0  0  0  0  0  0  0  0
   -3.3270   -0.2581    0.9258 O   0  0  0  0  0  0  0  0  0  0  0  0
   -4.2299    0.8060    0.5740 C   0  0  0  0  0  0  0  0  0  0  0  0
   -5.3049    0.9333    1.6563 C   0  0  0  0  0  0  0  0  0  0  0  0
   -4.7868    1.4951    2.8669 O   0  0  0  0  0  0  0  0  0  0  0  0
   -4.7531    2.9158    2.8574 C   0  0  0  0  0  0  0  0  0  0  0  0
    0.3020    2.2965    2.5191 N   0  0  0  0  0  0  0  0  0  0  0  0
    1.5731    2.6902    2.3953 C   0  0  0  0  0  0  0  0  0  0  0  0
    2.4300    2.3034    1.4471 N   0  0  0  0  0  0  0  0  0  0  0  0
    1.9713    1.4354    0.5279 C   0  0  0  0  0  0  0  0  0  0  0  0
    2.8310    1.0008   -0.5159 N   0  0  0  0  0  0  0  0  0  0  0  0
    4.2336    1.1312   -0.6364 C   0  0  0  0  0  0  0  0  0  0  0  0
    5.0877    1.2708    0.4628 C   0  0  0  0  0  0  0  0  0  0  0  0
    6.4758    1.3266    0.2989 C   0  0  0  0  0  0  0  0  0  0  0  0
    7.0360    1.1986   -0.9692 C   0  0  0  0  0  0  0  0  0  0  0  0
    6.2073    1.0154   -2.0735 C   0  0  0  0  0  0  0  0  0  0  0  0
    4.8180    0.9767   -1.9054 C   0  0  0  0  0  0  0  0  0  0  0  0
    6.7735    0.8430   -3.3759 C   0  0  0  0  0  0  0  0  0  0  0  0
    7.2449    0.6791   -4.4678 C   0  0  0  0  0  0  0  0  0  0  0  0
   -4.5783   -5.7744   -0.6815 H   0  0  0  0  0  0  0  0  0  0  0  0
   -2.8057   -5.7106   -0.5813 H   0  0  0  0  0  0  0  0  0  0  0  0
   -3.8121   -4.5112    0.2978 H   0  0  0  0  0  0  0  0  0  0  0  0
   -2.5255   -3.0483   -2.8803 H   0  0  0  0  0  0  0  0  0  0  0  0
   -1.6583   -3.9913   -1.6854 H   0  0  0  0  0  0  0  0  0  0  0  0
   -2.5892   -2.5837    0.1377 H   0  0  0  0  0  0  0  0  0  0  0  0
   -3.6179   -1.7200   -1.0418 H   0  0  0  0  0  0  0  0  0  0  0  0
    0.7121   -0.4084   -1.1424 H   0  0  0  0  0  0  0  0  0  0  0  0
   -2.0737    1.3532    2.5239 H   0  0  0  0  0  0  0  0  0  0  0  0
   -4.7037    0.5185   -0.3713 H   0  0  0  0  0  0  0  0  0  0  0  0
   -3.7175    1.7616    0.4130 H   0  0  0  0  0  0  0  0  0  0  0  0
   -5.6785   -0.0643    1.9138 H   0  0  0  0  0  0  0  0  0  0  0  0
   -6.1511    1.5299    1.2983 H   0  0  0  0  0  0  0  0  0  0  0  0
   -4.3335    3.2520    3.8085 H   0  0  0  0  0  0  0  0  0  0  0  0
   -5.7660    3.3191    2.7662 H   0  0  0  0  0  0  0  0  0  0  0  0
   -4.1238    3.2917    2.0482 H   0  0  0  0  0  0  0  0  0  0  0  0
    1.9438    3.3940    3.1324 H   0  0  0  0  0  0  0  0  0  0  0  0
    2.3691    1.1482   -1.4074 H   0  0  0  0  0  0  0  0  0  0  0  0
    4.6860    1.3410    1.4696 H   0  0  0  0  0  0  0  0  0  0  0  0
    7.1156    1.4590    1.1662 H   0  0  0  0  0  0  0  0  0  0  0  0
    8.1165    1.2324   -1.0849 H   0  0  0  0  0  0  0  0  0  0  0  0
    4.1882    0.8241   -2.7801 H   0  0  0  0  0  0  0  0  0  0  0  0
    7.6558    0.5124   -5.4354 H   0  0  0  0  0  0  0  0  0  0  0  0
  1  2  1  0
  2  3  1  0
  3  4  1  0
  4  5  1  0
  5  6  1  0
  6  7  2  0
  7  8  1  0
  8  9  2  0
  9 10  1  0
 10 11  2  0
 11 12  1  0
 12 13  1  0
 13 14  1  0
 14 15  1  0
 15 16  1  0
  9 17  1  0
 17 18  2  0
 18 19  1  0
 19 20  2  0
 20 21  1  0
 21 22  1  0
 22 23  2  0
 23 24  1  0
 24 25  2  0
 25 26  1  0
 26 27  2  0
 26 28  1  0
 28 29  3  0
 11  6  1  0
 20  8  1  0
 27 22  1  0
  1 30  1  0
  1 31  1  0
  1 32  1  0
  3 33  1  0
  3 34  1  0
  4 35  1  0
  4 36  1  0
  7 37  1  0
 10 38  1  0
 13 39  1  0
 13 40  1  0
 14 41  1  0
 14 42  1  0
 16 43  1  0
 16 44  1  0
 16 45  1  0
 18 46  1  0
 21 47  1  0
 23 48  1  0
 24 49  1  0
 25 50  1  0
 27 51  1  0
 29 52  1  0
M  END
>  <energy_abs>  (10) 
60.40198293322022

>  <SMILES>  (10) 
COCCOc1cc2c(cc1OCCOC)ncnc2Nc3cccc(c3)C#C

>  <cluster_no>  (10) 
10

>  <fda_drugs_id>  (10) 
AAKJLRGGTJKAMG-UHFFFAOYSA-N

>  <initial_conformation_id>  (10) 
295

>  <minimize_method>  (10) 
MMFF

$$$$

     RDKit          3D

 52 54  0  0  0  0  0  0  0  0999 V2000
    0.3869   -3.8713   -1.8968 C   0  0  0  0  0  0  0  0  0  0  0  0
   -0.1743   -2.5609   -1.8778 O   0  0  0  0  0  0  0  0  0  0  0  0
   -1.6045   -2.6012   -1.9331 C   0  0  0  0  0  0  0  0  0  0  0  0
   -2.1690   -1.1899   -1.7342 C   0  0  0  0  0  0  0  0  0  0  0  0
   -2.3550   -0.9309   -0.3326 O   0  0  0  0  0  0  0  0  0  0  0  0
   -1.6237    0.0988    0.1963 C   0  0  0  0  0  0  0  0  0  0  0  0
   -0.2569    0.2449   -0.0378 C   0  0  0  0  0  0  0  0  0  0  0  0
    0.4808    1.2919    0.5700 C   0  0  0  0  0  0  0  0  0  0  0  0
   -0.1732    2.1657    1.4489 C   0  0  0  0  0  0  0  0  0  0  0  0
   -1.5315    1.9900    1.6908 C   0  0  0  0  0  0  0  0  0  0  0  0
   -2.2708    0.9704    1.0802 C   0  0  0  0  0  0  0  0  0  0  0  0
   -3.6128    0.7552    1.2678 O   0  0  0  0  0  0  0  0  0  0  0  0
   -4.2945    1.5882    2.2127 C   0  0  0  0  0  0  0  0  0  0  0  0
   -5.7669    1.1735    2.2658 C   0  0  0  0  0  0  0  0  0  0  0  0
   -5.9014   -0.0377    3.0182 O   0  0  0  0  0  0  0  0  0  0  0  0
   -7.2521   -0.4782    3.0637 C   0  0  0  0  0  0  0  0  0  0  0  0
    0.4554    3.1660    2.0740 N   0  0  0  0  0  0  0  0  0  0  0  0
    1.7633    3.2980    1.8312 C   0  0  0  0  0  0  0  0  0  0  0  0
    2.4956    2.5347    1.0153 N   0  0  0  0  0  0  0  0  0  0  0  0
    1.8573    1.5363    0.3759 C   0  0  0  0  0  0  0  0  0  0  0  0
    2.5806    0.7038   -0.5225 N   0  0  0  0  0  0  0  0  0  0  0  0
    3.9767    0.6023   -0.7149 C   0  0  0  0  0  0  0  0  0  0  0  0
    4.9055    0.8605    0.2994 C   0  0  0  0  0  0  0  0  0  0  0  0
    6.2773    0.6860    0.0879 C   0  0  0  0  0  0  0  0  0  0  0  0
    6.7410    0.2270   -1.1410 C   0  0  0  0  0  0  0  0  0  0  0  0
    5.8314   -0.0673   -2.1544 C   0  0  0  0  0  0  0  0  0  0  0  0
    4.4596    0.1077   -1.9363 C   0  0  0  0  0  0  0  0  0  0  0  0
    6.2992   -0.5534   -3.4140 C   0  0  0  0  0  0  0  0  0  0  0  0
    6.6948   -0.9557   -4.4736 C   0  0  0  0  0  0  0  0  0  0  0  0
    1.4774   -3.7806   -1.9091 H   0  0  0  0  0  0  0  0  0  0  0  0
    0.0937   -4.4234   -0.9973 H   0  0  0  0  0  0  0  0  0  0  0  0
    0.0711   -4.4138   -2.7954 H   0  0  0  0  0  0  0  0  0  0  0  0
   -1.9868   -3.2807   -1.1596 H   0  0  0  0  0  0  0  0  0  0  0  0
   -1.8905   -2.9736   -2.9253 H   0  0  0  0  0  0  0  0  0  0  0  0
   -3.1718   -1.1491   -2.1775 H   0  0  0  0  0  0  0  0  0  0  0  0
   -1.5596   -0.4289   -2.2378 H   0  0  0  0  0  0  0  0  0  0  0  0
    0.2562   -0.4759   -0.6669 H   0  0  0  0  0  0  0  0  0  0  0  0
   -1.9980    2.6828    2.3853 H   0  0  0  0  0  0  0  0  0  0  0  0
   -4.2404    2.6327    1.8790 H   0  0  0  0  0  0  0  0  0  0  0  0
   -3.8413    1.4719    3.2061 H   0  0  0  0  0  0  0  0  0  0  0  0
   -6.1534    1.0148    1.2521 H   0  0  0  0  0  0  0  0  0  0  0  0
   -6.3485    1.9577    2.7629 H   0  0  0  0  0  0  0  0  0  0  0  0
   -7.6307   -0.6683    2.0533 H   0  0  0  0  0  0  0  0  0  0  0  0
   -7.8803    0.2661    3.5663 H   0  0  0  0  0  0  0  0  0  0  0  0
   -7.2919   -1.4115    3.6345 H   0  0  0  0  0  0  0  0  0  0  0  0
    2.2794    4.1032    2.3451 H   0  0  0  0  0  0  0  0  0  0  0  0
    2.0757    0.6372   -1.4004 H   0  0  0  0  0  0  0  0  0  0  0  0
    4.5723    1.1938    1.2774 H   0  0  0  0  0  0  0  0  0  0  0  0
    6.9788    0.9017    0.8888 H   0  0  0  0  0  0  0  0  0  0  0  0
    7.8083    0.0926   -1.2979 H   0  0  0  0  0  0  0  0  0  0  0  0
    3.7635   -0.1419   -2.7326 H   0  0  0  0  0  0  0  0  0  0  0  0
    7.0489   -1.3060   -5.4143 H   0  0  0  0  0  0  0  0  0  0  0  0
  1  2  1  0
  2  3  1  0
  3  4  1  0
  4  5  1  0
  5  6  1  0
  6  7  2  0
  7  8  1  0
  8  9  2  0
  9 10  1  0
 10 11  2  0
 11 12  1  0
 12 13  1  0
 13 14  1  0
 14 15  1  0
 15 16  1  0
  9 17  1  0
 17 18  2  0
 18 19  1  0
 19 20  2  0
 20 21  1  0
 21 22  1  0
 22 23  2  0
 23 24  1  0
 24 25  2  0
 25 26  1  0
 26 27  2  0
 26 28  1  0
 28 29  3  0
 11  6  1  0
 20  8  1  0
 27 22  1  0
  1 30  1  0
  1 31  1  0
  1 32  1  0
  3 33  1  0
  3 34  1  0
  4 35  1  0
  4 36  1  0
  7 37  1  0
 10 38  1  0
 13 39  1  0
 13 40  1  0
 14 41  1  0
 14 42  1  0
 16 43  1  0
 16 44  1  0
 16 45  1  0
 18 46  1  0
 21 47  1  0
 23 48  1  0
 24 49  1  0
 25 50  1  0
 27 51  1  0
 29 52  1  0
M  END
>  <energy_abs>  (11) 
59.611536874168415

>  <SMILES>  (11) 
COCCOc1cc2c(cc1OCCOC)ncnc2Nc3cccc(c3)C#C

>  <cluster_no>  (11) 
11

>  <fda_drugs_id>  (11) 
AAKJLRGGTJKAMG-UHFFFAOYSA-N

>  <initial_conformation_id>  (11) 
294

>  <minimize_method>  (11) 
MMFF

$$$$

     RDKit          3D

 52 54  0  0  0  0  0  0  0  0999 V2000
   -3.1011   -5.3711   -2.5239 C   0  0  0  0  0  0  0  0  0  0  0  0
   -3.0048   -4.4760   -1.4238 O   0  0  0  0  0  0  0  0  0  0  0  0
   -2.4923   -3.2061   -1.8240 C   0  0  0  0  0  0  0  0  0  0  0  0
   -2.4279   -2.2752   -0.6162 C   0  0  0  0  0  0  0  0  0  0  0  0
   -1.8985   -1.0146   -1.0497 O   0  0  0  0  0  0  0  0  0  0  0  0
   -1.3279   -0.3074   -0.0272 C   0  0  0  0  0  0  0  0  0  0  0  0
    0.0064    0.0555   -0.1953 C   0  0  0  0  0  0  0  0  0  0  0  0
    0.6972    0.7792    0.8109 C   0  0  0  0  0  0  0  0  0  0  0  0
    0.0152    1.1544    1.9780 C   0  0  0  0  0  0  0  0  0  0  0  0
   -1.3202    0.8022    2.1160 C   0  0  0  0  0  0  0  0  0  0  0  0
   -2.0046    0.1091    1.1157 C   0  0  0  0  0  0  0  0  0  0  0  0
   -3.3254   -0.1618    1.3441 O   0  0  0  0  0  0  0  0  0  0  0  0
   -4.1993    0.6146    0.5037 C   0  0  0  0  0  0  0  0  0  0  0  0
   -4.6188    1.9135    1.1953 C   0  0  0  0  0  0  0  0  0  0  0  0
   -5.4481    1.6128    2.3219 O   0  0  0  0  0  0  0  0  0  0  0  0
   -5.8109    2.7864    3.0360 C   0  0  0  0  0  0  0  0  0  0  0  0
    0.5941    1.8483    2.9607 N   0  0  0  0  0  0  0  0  0  0  0  0
    1.8754    2.1854    2.7840 C   0  0  0  0  0  0  0  0  0  0  0  0
    2.6304    1.8876    1.7240 N   0  0  0  0  0  0  0  0  0  0  0  0
    2.0489    1.1751    0.7425 C   0  0  0  0  0  0  0  0  0  0  0  0
    2.8178    0.7903   -0.3905 N   0  0  0  0  0  0  0  0  0  0  0  0
    4.0841    1.2705   -0.7970 C   0  0  0  0  0  0  0  0  0  0  0  0
    4.5162    2.5771   -0.5383 C   0  0  0  0  0  0  0  0  0  0  0  0
    5.7465    3.0399   -1.0151 C   0  0  0  0  0  0  0  0  0  0  0  0
    6.5563    2.2057   -1.7823 C   0  0  0  0  0  0  0  0  0  0  0  0
    6.1287    0.9131   -2.0821 C   0  0  0  0  0  0  0  0  0  0  0  0
    4.8956    0.4557   -1.6032 C   0  0  0  0  0  0  0  0  0  0  0  0
    6.9480    0.0555   -2.8830 C   0  0  0  0  0  0  0  0  0  0  0  0
    7.6377   -0.6652   -3.5519 C   0  0  0  0  0  0  0  0  0  0  0  0
   -2.1138   -5.5443   -2.9640 H   0  0  0  0  0  0  0  0  0  0  0  0
   -3.4935   -6.3244   -2.1594 H   0  0  0  0  0  0  0  0  0  0  0  0
   -3.7874   -4.9764   -3.2802 H   0  0  0  0  0  0  0  0  0  0  0  0
   -1.4901   -3.3261   -2.2538 H   0  0  0  0  0  0  0  0  0  0  0  0
   -3.1353   -2.7666   -2.5962 H   0  0  0  0  0  0  0  0  0  0  0  0
   -3.4383   -2.1467   -0.2135 H   0  0  0  0  0  0  0  0  0  0  0  0
   -1.8038   -2.7332    0.1631 H   0  0  0  0  0  0  0  0  0  0  0  0
    0.5094   -0.2272   -1.1168 H   0  0  0  0  0  0  0  0  0  0  0  0
   -1.8525    1.0911    3.0198 H   0  0  0  0  0  0  0  0  0  0  0  0
   -3.7487    0.8356   -0.4710 H   0  0  0  0  0  0  0  0  0  0  0  0
   -5.0838   -0.0069    0.3255 H   0  0  0  0  0  0  0  0  0  0  0  0
   -3.7391    2.4725    1.5328 H   0  0  0  0  0  0  0  0  0  0  0  0
   -5.1898    2.5308    0.4928 H   0  0  0  0  0  0  0  0  0  0  0  0
   -6.3768    3.4668    2.3919 H   0  0  0  0  0  0  0  0  0  0  0  0
   -6.4442    2.4949    3.8788 H   0  0  0  0  0  0  0  0  0  0  0  0
   -4.9202    3.2886    3.4268 H   0  0  0  0  0  0  0  0  0  0  0  0
    2.3476    2.7539    3.5777 H   0  0  0  0  0  0  0  0  0  0  0  0
    2.7521   -0.2165   -0.4996 H   0  0  0  0  0  0  0  0  0  0  0  0
    3.8944    3.2585    0.0363 H   0  0  0  0  0  0  0  0  0  0  0  0
    6.0651    4.0547   -0.7912 H   0  0  0  0  0  0  0  0  0  0  0  0
    7.5116    2.5718   -2.1501 H   0  0  0  0  0  0  0  0  0  0  0  0
    4.5722   -0.5503   -1.8595 H   0  0  0  0  0  0  0  0  0  0  0  0
    8.2492   -1.3021   -4.1473 H   0  0  0  0  0  0  0  0  0  0  0  0
  1  2  1  0
  2  3  1  0
  3  4  1  0
  4  5  1  0
  5  6  1  0
  6  7  2  0
  7  8  1  0
  8  9  2  0
  9 10  1  0
 10 11  2  0
 11 12  1  0
 12 13  1  0
 13 14  1  0
 14 15  1  0
 15 16  1  0
  9 17  1  0
 17 18  2  0
 18 19  1  0
 19 20  2  0
 20 21  1  0
 21 22  1  0
 22 23  2  0
 23 24  1  0
 24 25  2  0
 25 26  1  0
 26 27  2  0
 26 28  1  0
 28 29  3  0
 11  6  1  0
 20  8  1  0
 27 22  1  0
  1 30  1  0
  1 31  1  0
  1 32  1  0
  3 33  1  0
  3 34  1  0
  4 35  1  0
  4 36  1  0
  7 37  1  0
 10 38  1  0
 13 39  1  0
 13 40  1  0
 14 41  1  0
 14 42  1  0
 16 43  1  0
 16 44  1  0
 16 45  1  0
 18 46  1  0
 21 47  1  0
 23 48  1  0
 24 49  1  0
 25 50  1  0
 27 51  1  0
 29 52  1  0
M  END
>  <energy_abs>  (12) 
57.998267719621666

>  <SMILES>  (12) 
COCCOc1cc2c(cc1OCCOC)ncnc2Nc3cccc(c3)C#C

>  <cluster_no>  (12) 
12

>  <fda_drugs_id>  (12) 
AAKJLRGGTJKAMG-UHFFFAOYSA-N

>  <initial_conformation_id>  (12) 
293

>  <minimize_method>  (12) 
MMFF

$$$$

     RDKit          3D

 52 54  0  0  0  0  0  0  0  0999 V2000
   -3.0322   -3.7653   -3.7196 C   0  0  0  0  0  0  0  0  0  0  0  0
   -1.7456   -3.3703   -3.2540 O   0  0  0  0  0  0  0  0  0  0  0  0
   -1.6768   -3.2531   -1.8312 C   0  0  0  0  0  0  0  0  0  0  0  0
   -2.2977   -1.9518   -1.3238 C   0  0  0  0  0  0  0  0  0  0  0  0
   -2.0524   -1.8262    0.0820 O   0  0  0  0  0  0  0  0  0  0  0  0
   -1.4249   -0.6528    0.4155 C   0  0  0  0  0  0  0  0  0  0  0  0
   -0.1534   -0.3597   -0.0779 C   0  0  0  0  0  0  0  0  0  0  0  0
    0.5098    0.8314    0.3029 C   0  0  0  0  0  0  0  0  0  0  0  0
   -0.1114    1.6979    1.2136 C   0  0  0  0  0  0  0  0  0  0  0  0
   -1.3708    1.3731    1.7098 C   0  0  0  0  0  0  0  0  0  0  0  0
   -2.0371    0.2021    1.3365 C   0  0  0  0  0  0  0  0  0  0  0  0
   -3.2781   -0.1745    1.7758 O   0  0  0  0  0  0  0  0  0  0  0  0
   -3.8156    0.4613    2.9343 C   0  0  0  0  0  0  0  0  0  0  0  0
   -4.7456    1.6086    2.5431 C   0  0  0  0  0  0  0  0  0  0  0  0
   -5.2045    2.3414    3.6780 O   0  0  0  0  0  0  0  0  0  0  0  0
   -6.2774    1.7053    4.3585 C   0  0  0  0  0  0  0  0  0  0  0  0
    0.4596    2.8295    1.6336 N   0  0  0  0  0  0  0  0  0  0  0  0
    1.6751    3.1067    1.1506 C   0  0  0  0  0  0  0  0  0  0  0  0
    2.3633    2.3668    0.2774 N   0  0  0  0  0  0  0  0  0  0  0  0
    1.7819    1.2335   -0.1552 C   0  0  0  0  0  0  0  0  0  0  0  0
    2.4534    0.4222   -1.1128 N   0  0  0  0  0  0  0  0  0  0  0  0
    3.8028    0.4878   -1.5318 C   0  0  0  0  0  0  0  0  0  0  0  0
    4.1483   -0.0386   -2.7872 C   0  0  0  0  0  0  0  0  0  0  0  0
    5.4758   -0.0546   -3.2243 C   0  0  0  0  0  0  0  0  0  0  0  0
    6.4860    0.4348   -2.3993 C   0  0  0  0  0  0  0  0  0  0  0  0
    6.1685    0.9258   -1.1336 C   0  0  0  0  0  0  0  0  0  0  0  0
    4.8373    0.9376   -0.7004 C   0  0  0  0  0  0  0  0  0  0  0  0
    7.2058    1.4117   -0.2751 C   0  0  0  0  0  0  0  0  0  0  0  0
    8.0748    1.8238    0.4439 C   0  0  0  0  0  0  0  0  0  0  0  0
   -3.3226   -4.7256   -3.2831 H   0  0  0  0  0  0  0  0  0  0  0  0
   -2.9811   -3.8813   -4.8061 H   0  0  0  0  0  0  0  0  0  0  0  0
   -3.7816   -3.0026   -3.4898 H   0  0  0  0  0  0  0  0  0  0  0  0
   -0.6150   -3.2736   -1.5579 H   0  0  0  0  0  0  0  0  0  0  0  0
   -2.1302   -4.1259   -1.3445 H   0  0  0  0  0  0  0  0  0  0  0  0
   -1.9406   -1.0978   -1.9146 H   0  0  0  0  0  0  0  0  0  0  0  0
   -3.3848   -1.9791   -1.4618 H   0  0  0  0  0  0  0  0  0  0  0  0
    0.3369   -1.0712   -0.7379 H   0  0  0  0  0  0  0  0  0  0  0  0
   -1.8194    2.0802    2.4024 H   0  0  0  0  0  0  0  0  0  0  0  0
   -3.0485    0.7708    3.6525 H   0  0  0  0  0  0  0  0  0  0  0  0
   -4.3977   -0.3027    3.4613 H   0  0  0  0  0  0  0  0  0  0  0  0
   -4.2091    2.3146    1.9020 H   0  0  0  0  0  0  0  0  0  0  0  0
   -5.5901    1.2454    1.9465 H   0  0  0  0  0  0  0  0  0  0  0  0
   -5.9666    0.7390    4.7682 H   0  0  0  0  0  0  0  0  0  0  0  0
   -6.5834    2.3488    5.1887 H   0  0  0  0  0  0  0  0  0  0  0  0
   -7.1330    1.5744    3.6871 H   0  0  0  0  0  0  0  0  0  0  0  0
    2.1461    4.0211    1.4993 H   0  0  0  0  0  0  0  0  0  0  0  0
    1.8315    0.2636   -1.9017 H   0  0  0  0  0  0  0  0  0  0  0  0
    3.3813   -0.4406   -3.4446 H   0  0  0  0  0  0  0  0  0  0  0  0
    5.7206   -0.4527   -4.2050 H   0  0  0  0  0  0  0  0  0  0  0  0
    7.5176    0.4214   -2.7423 H   0  0  0  0  0  0  0  0  0  0  0  0
    4.6146    1.2983    0.2997 H   0  0  0  0  0  0  0  0  0  0  0  0
    8.8426    2.1912    1.0831 H   0  0  0  0  0  0  0  0  0  0  0  0
  1  2  1  0
  2  3  1  0
  3  4  1  0
  4  5  1  0
  5  6  1  0
  6  7  2  0
  7  8  1  0
  8  9  2  0
  9 10  1  0
 10 11  2  0
 11 12  1  0
 12 13  1  0
 13 14  1  0
 14 15  1  0
 15 16  1  0
  9 17  1  0
 17 18  2  0
 18 19  1  0
 19 20  2  0
 20 21  1  0
 21 22  1  0
 22 23  2  0
 23 24  1  0
 24 25  2  0
 25 26  1  0
 26 27  2  0
 26 28  1  0
 28 29  3  0
 11  6  1  0
 20  8  1  0
 27 22  1  0
  1 30  1  0
  1 31  1  0
  1 32  1  0
  3 33  1  0
  3 34  1  0
  4 35  1  0
  4 36  1  0
  7 37  1  0
 10 38  1  0
 13 39  1  0
 13 40  1  0
 14 41  1  0
 14 42  1  0
 16 43  1  0
 16 44  1  0
 16 45  1  0
 18 46  1  0
 21 47  1  0
 23 48  1  0
 24 49  1  0
 25 50  1  0
 27 51  1  0
 29 52  1  0
M  END
>  <energy_abs>  (13) 
62.032263740066504

>  <SMILES>  (13) 
COCCOc1cc2c(cc1OCCOC)ncnc2Nc3cccc(c3)C#C

>  <cluster_no>  (13) 
13

>  <fda_drugs_id>  (13) 
AAKJLRGGTJKAMG-UHFFFAOYSA-N

>  <initial_conformation_id>  (13) 
292

>  <minimize_method>  (13) 
MMFF

$$$$

     RDKit          3D

 52 54  0  0  0  0  0  0  0  0999 V2000
   -3.7461   -3.6243   -2.4187 C   0  0  0  0  0  0  0  0  0  0  0  0
   -2.5721   -2.8289   -2.4823 O   0  0  0  0  0  0  0  0  0  0  0  0
   -2.8362   -1.4217   -2.4667 C   0  0  0  0  0  0  0  0  0  0  0  0
   -3.2305   -0.8813   -1.0908 C   0  0  0  0  0  0  0  0  0  0  0  0
   -2.1747   -1.1363   -0.1550 O   0  0  0  0  0  0  0  0  0  0  0  0
   -1.5010   -0.0187    0.2486 C   0  0  0  0  0  0  0  0  0  0  0  0
   -0.1220   -0.0339    0.0592 C   0  0  0  0  0  0  0  0  0  0  0  0
    0.6857    1.0445    0.5027 C   0  0  0  0  0  0  0  0  0  0  0  0
    0.0761    2.1408    1.1322 C   0  0  0  0  0  0  0  0  0  0  0  0
   -1.2990    2.1271    1.3281 C   0  0  0  0  0  0  0  0  0  0  0  0
   -2.0892    1.0495    0.9229 C   0  0  0  0  0  0  0  0  0  0  0  0
   -3.4437    1.0420    1.1283 O   0  0  0  0  0  0  0  0  0  0  0  0
   -3.7947    1.1811    2.5137 C   0  0  0  0  0  0  0  0  0  0  0  0
   -5.2350    0.6994    2.7102 C   0  0  0  0  0  0  0  0  0  0  0  0
   -5.4468   -0.6754    2.3743 O   0  0  0  0  0  0  0  0  0  0  0  0
   -4.7698   -1.5874    3.2247 C   0  0  0  0  0  0  0  0  0  0  0  0
    0.7633    3.2016    1.5629 N   0  0  0  0  0  0  0  0  0  0  0  0
    2.0847    3.1772    1.3650 C   0  0  0  0  0  0  0  0  0  0  0  0
    2.7799    2.1938    0.7904 N   0  0  0  0  0  0  0  0  0  0  0  0
    2.0877    1.1239    0.3624 C   0  0  0  0  0  0  0  0  0  0  0  0
    2.7766    0.0399   -0.2476 N   0  0  0  0  0  0  0  0  0  0  0  0
    4.1228   -0.0445   -0.6739 C   0  0  0  0  0  0  0  0  0  0  0  0
    4.6839   -1.3167   -0.8661 C   0  0  0  0  0  0  0  0  0  0  0  0
    5.9893   -1.4699   -1.3407 C   0  0  0  0  0  0  0  0  0  0  0  0
    6.7506   -0.3498   -1.6586 C   0  0  0  0  0  0  0  0  0  0  0  0
    6.1984    0.9204   -1.5148 C   0  0  0  0  0  0  0  0  0  0  0  0
    4.8870    1.0690   -1.0441 C   0  0  0  0  0  0  0  0  0  0  0  0
    6.9744    2.0753   -1.8480 C   0  0  0  0  0  0  0  0  0  0  0  0
    7.6192    3.0576   -2.0889 C   0  0  0  0  0  0  0  0  0  0  0  0
   -4.2472   -3.5148   -1.4554 H   0  0  0  0  0  0  0  0  0  0  0  0
   -4.4294   -3.3711   -3.2358 H   0  0  0  0  0  0  0  0  0  0  0  0
   -3.4525   -4.6740   -2.5290 H   0  0  0  0  0  0  0  0  0  0  0  0
   -3.6032   -1.1802   -3.2098 H   0  0  0  0  0  0  0  0  0  0  0  0
   -1.9096   -0.9356   -2.7844 H   0  0  0  0  0  0  0  0  0  0  0  0
   -4.1189   -1.3903   -0.7102 H   0  0  0  0  0  0  0  0  0  0  0  0
   -3.4697    0.1834   -1.1945 H   0  0  0  0  0  0  0  0  0  0  0  0
    0.3177   -0.8866   -0.4540 H   0  0  0  0  0  0  0  0  0  0  0  0
   -1.7546    2.9884    1.8105 H   0  0  0  0  0  0  0  0  0  0  0  0
   -3.1119    0.6089    3.1502 H   0  0  0  0  0  0  0  0  0  0  0  0
   -3.7403    2.2389    2.7932 H   0  0  0  0  0  0  0  0  0  0  0  0
   -5.5614    0.8732    3.7436 H   0  0  0  0  0  0  0  0  0  0  0  0
   -5.8908    1.2770    2.0513 H   0  0  0  0  0  0  0  0  0  0  0  0
   -4.9630   -1.3633    4.2786 H   0  0  0  0  0  0  0  0  0  0  0  0
   -3.6945   -1.5777    3.0241 H   0  0  0  0  0  0  0  0  0  0  0  0
   -5.1435   -2.5923    3.0096 H   0  0  0  0  0  0  0  0  0  0  0  0
    2.6496    4.0405    1.7054 H   0  0  0  0  0  0  0  0  0  0  0  0
    2.4865   -0.8230    0.1999 H   0  0  0  0  0  0  0  0  0  0  0  0
    4.1032   -2.2115   -0.6521 H   0  0  0  0  0  0  0  0  0  0  0  0
    6.4064   -2.4645   -1.4703 H   0  0  0  0  0  0  0  0  0  0  0  0
    7.7615   -0.4746   -2.0346 H   0  0  0  0  0  0  0  0  0  0  0  0
    4.4700    2.0659   -0.9685 H   0  0  0  0  0  0  0  0  0  0  0  0
    8.1901    3.9347   -2.2864 H   0  0  0  0  0  0  0  0  0  0  0  0
  1  2  1  0
  2  3  1  0
  3  4  1  0
  4  5  1  0
  5  6  1  0
  6  7  2  0
  7  8  1  0
  8  9  2  0
  9 10  1  0
 10 11  2  0
 11 12  1  0
 12 13  1  0
 13 14  1  0
 14 15  1  0
 15 16  1  0
  9 17  1  0
 17 18  2  0
 18 19  1  0
 19 20  2  0
 20 21  1  0
 21 22  1  0
 22 23  2  0
 23 24  1  0
 24 25  2  0
 25 26  1  0
 26 27  2  0
 26 28  1  0
 28 29  3  0
 11  6  1  0
 20  8  1  0
 27 22  1  0
  1 30  1  0
  1 31  1  0
  1 32  1  0
  3 33  1  0
  3 34  1  0
  4 35  1  0
  4 36  1  0
  7 37  1  0
 10 38  1  0
 13 39  1  0
 13 40  1  0
 14 41  1  0
 14 42  1  0
 16 43  1  0
 16 44  1  0
 16 45  1  0
 18 46  1  0
 21 47  1  0
 23 48  1  0
 24 49  1  0
 25 50  1  0
 27 51  1  0
 29 52  1  0
M  END
>  <energy_abs>  (14) 
62.27292149457516

>  <SMILES>  (14) 
COCCOc1cc2c(cc1OCCOC)ncnc2Nc3cccc(c3)C#C

>  <cluster_no>  (14) 
14

>  <fda_drugs_id>  (14) 
AAKJLRGGTJKAMG-UHFFFAOYSA-N

>  <initial_conformation_id>  (14) 
291

>  <minimize_method>  (14) 
MMFF

$$$$

     RDKit          3D

 52 54  0  0  0  0  0  0  0  0999 V2000
   -2.1831   -4.7452   -2.1206 C   0  0  0  0  0  0  0  0  0  0  0  0
   -3.1320   -3.7766   -1.7160 O   0  0  0  0  0  0  0  0  0  0  0  0
   -3.0416   -2.5489   -2.4429 C   0  0  0  0  0  0  0  0  0  0  0  0
   -1.9335   -1.6303   -1.9182 C   0  0  0  0  0  0  0  0  0  0  0  0
   -2.3450   -1.0624   -0.6707 O   0  0  0  0  0  0  0  0  0  0  0  0
   -1.5293   -0.1196   -0.1081 C   0  0  0  0  0  0  0  0  0  0  0  0
   -0.2064    0.1205   -0.4786 C   0  0  0  0  0  0  0  0  0  0  0  0
    0.5763    1.1079    0.1806 C   0  0  0  0  0  0  0  0  0  0  0  0
    0.0181    1.8412    1.2362 C   0  0  0  0  0  0  0  0  0  0  0  0
   -1.3003    1.6040    1.5891 C   0  0  0  0  0  0  0  0  0  0  0  0
   -2.0644    0.6295    0.9415 C   0  0  0  0  0  0  0  0  0  0  0  0
   -3.3836    0.4747    1.2823 O   0  0  0  0  0  0  0  0  0  0  0  0
   -3.5422   -0.1892    2.5506 C   0  0  0  0  0  0  0  0  0  0  0  0
   -4.3046    0.7240    3.5152 C   0  0  0  0  0  0  0  0  0  0  0  0
   -5.6869    0.7828    3.1427 O   0  0  0  0  0  0  0  0  0  0  0  0
   -6.4145    1.7000    3.9533 C   0  0  0  0  0  0  0  0  0  0  0  0
    0.7009    2.7638    1.9178 N   0  0  0  0  0  0  0  0  0  0  0  0
    1.9715    2.9614    1.5520 C   0  0  0  0  0  0  0  0  0  0  0  0
    2.6110    2.3402    0.5585 N   0  0  0  0  0  0  0  0  0  0  0  0
    1.9135    1.4250   -0.1367 C   0  0  0  0  0  0  0  0  0  0  0  0
    2.5236    0.7795   -1.2498 N   0  0  0  0  0  0  0  0  0  0  0  0
    3.8937    0.7655   -1.6045 C   0  0  0  0  0  0  0  0  0  0  0  0
    4.2458    0.5697   -2.9514 C   0  0  0  0  0  0  0  0  0  0  0  0
    5.5851    0.4922   -3.3431 C   0  0  0  0  0  0  0  0  0  0  0  0
    6.5953    0.5805   -2.3865 C   0  0  0  0  0  0  0  0  0  0  0  0
    6.2648    0.7292   -1.0394 C   0  0  0  0  0  0  0  0  0  0  0  0
    4.9222    0.8081   -0.6536 C   0  0  0  0  0  0  0  0  0  0  0  0
    7.2994    0.7894   -0.0510 C   0  0  0  0  0  0  0  0  0  0  0  0
    8.1647    0.8377    0.7806 C   0  0  0  0  0  0  0  0  0  0  0  0
   -2.2951   -4.9779   -3.1798 H   0  0  0  0  0  0  0  0  0  0  0  0
   -2.3634   -5.6597   -1.5516 H   0  0  0  0  0  0  0  0  0  0  0  0
   -1.1678   -4.4057   -1.9166 H   0  0  0  0  0  0  0  0  0  0  0  0
   -2.8935   -2.7659   -3.5057 H   0  0  0  0  0  0  0  0  0  0  0  0
   -4.0085   -2.0512   -2.3344 H   0  0  0  0  0  0  0  0  0  0  0  0
   -1.7750   -0.8256   -2.6469 H   0  0  0  0  0  0  0  0  0  0  0  0
   -1.0106   -2.1999   -1.7759 H   0  0  0  0  0  0  0  0  0  0  0  0
    0.2582   -0.4672   -1.2624 H   0  0  0  0  0  0  0  0  0  0  0  0
   -1.7455    2.2015    2.3797 H   0  0  0  0  0  0  0  0  0  0  0  0
   -2.5783   -0.4753    2.9944 H   0  0  0  0  0  0  0  0  0  0  0  0
   -4.1154   -1.1062    2.3617 H   0  0  0  0  0  0  0  0  0  0  0  0
   -4.2372    0.3210    4.5340 H   0  0  0  0  0  0  0  0  0  0  0  0
   -3.8852    1.7385    3.4956 H   0  0  0  0  0  0  0  0  0  0  0  0
   -6.0182    2.7159    3.8376 H   0  0  0  0  0  0  0  0  0  0  0  0
   -7.4595    1.6951    3.6364 H   0  0  0  0  0  0  0  0  0  0  0  0
   -6.3680    1.3981    5.0056 H   0  0  0  0  0  0  0  0  0  0  0  0
    2.5358    3.6978    2.1135 H   0  0  0  0  0  0  0  0  0  0  0  0
    1.9400    0.9389   -2.0643 H   0  0  0  0  0  0  0  0  0  0  0  0
    3.4767    0.4826   -3.7163 H   0  0  0  0  0  0  0  0  0  0  0  0
    5.8396    0.3581   -4.3926 H   0  0  0  0  0  0  0  0  0  0  0  0
    7.6362    0.5204   -2.6943 H   0  0  0  0  0  0  0  0  0  0  0  0
    4.6823    0.8973    0.4032 H   0  0  0  0  0  0  0  0  0  0  0  0
    8.9302    0.8781    1.5209 H   0  0  0  0  0  0  0  0  0  0  0  0
  1  2  1  0
  2  3  1  0
  3  4  1  0
  4  5  1  0
  5  6  1  0
  6  7  2  0
  7  8  1  0
  8  9  2  0
  9 10  1  0
 10 11  2  0
 11 12  1  0
 12 13  1  0
 13 14  1  0
 14 15  1  0
 15 16  1  0
  9 17  1  0
 17 18  2  0
 18 19  1  0
 19 20  2  0
 20 21  1  0
 21 22  1  0
 22 23  2  0
 23 24  1  0
 24 25  2  0
 25 26  1  0
 26 27  2  0
 26 28  1  0
 28 29  3  0
 11  6  1  0
 20  8  1  0
 27 22  1  0
  1 30  1  0
  1 31  1  0
  1 32  1  0
  3 33  1  0
  3 34  1  0
  4 35  1  0
  4 36  1  0
  7 37  1  0
 10 38  1  0
 13 39  1  0
 13 40  1  0
 14 41  1  0
 14 42  1  0
 16 43  1  0
 16 44  1  0
 16 45  1  0
 18 46  1  0
 21 47  1  0
 23 48  1  0
 24 49  1  0
 25 50  1  0
 27 51  1  0
 29 52  1  0
M  END
>  <energy_abs>  (15) 
64.33378858591514

>  <SMILES>  (15) 
COCCOc1cc2c(cc1OCCOC)ncnc2Nc3cccc(c3)C#C

>  <cluster_no>  (15) 
15

>  <fda_drugs_id>  (15) 
AAKJLRGGTJKAMG-UHFFFAOYSA-N

>  <initial_conformation_id>  (15) 
290

>  <minimize_method>  (15) 
MMFF

$$$$

     RDKit          3D

 52 54  0  0  0  0  0  0  0  0999 V2000
   -2.5026   -3.6944   -3.2755 C   0  0  0  0  0  0  0  0  0  0  0  0
   -1.4770   -3.2400   -2.4023 O   0  0  0  0  0  0  0  0  0  0  0  0
   -1.9731   -2.4711   -1.3069 C   0  0  0  0  0  0  0  0  0  0  0  0
   -2.2914   -1.0299   -1.7095 C   0  0  0  0  0  0  0  0  0  0  0  0
   -2.6225   -0.2400   -0.5681 O   0  0  0  0  0  0  0  0  0  0  0  0
   -1.6270    0.4350    0.0810 C   0  0  0  0  0  0  0  0  0  0  0  0
   -0.2593    0.2855   -0.1431 C   0  0  0  0  0  0  0  0  0  0  0  0
    0.6963    1.0419    0.5934 C   0  0  0  0  0  0  0  0  0  0  0  0
    0.2566    1.9714    1.5470 C   0  0  0  0  0  0  0  0  0  0  0  0
   -1.1041    2.1082    1.7666 C   0  0  0  0  0  0  0  0  0  0  0  0
   -2.0335    1.3380    1.0656 C   0  0  0  0  0  0  0  0  0  0  0  0
   -3.3648    1.5580    1.3158 O   0  0  0  0  0  0  0  0  0  0  0  0
   -3.8571    0.6019    2.2626 C   0  0  0  0  0  0  0  0  0  0  0  0
   -5.3717    0.7498    2.3543 C   0  0  0  0  0  0  0  0  0  0  0  0
   -5.8861   -0.1860    3.3022 O   0  0  0  0  0  0  0  0  0  0  0  0
   -7.2980   -0.0691    3.4325 C   0  0  0  0  0  0  0  0  0  0  0  0
    1.0924    2.7324    2.2572 N   0  0  0  0  0  0  0  0  0  0  0  0
    2.3976    2.5765    2.0159 C   0  0  0  0  0  0  0  0  0  0  0  0
    2.9412    1.7239    1.1445 N   0  0  0  0  0  0  0  0  0  0  0  0
    2.0961    0.9507    0.4393 C   0  0  0  0  0  0  0  0  0  0  0  0
    2.6231   -0.0021   -0.4764 N   0  0  0  0  0  0  0  0  0  0  0  0
    3.9397   -0.1008   -0.9838 C   0  0  0  0  0  0  0  0  0  0  0  0
    4.3903   -1.3421   -1.4604 C   0  0  0  0  0  0  0  0  0  0  0  0
    5.6589   -1.4806   -2.0302 C   0  0  0  0  0  0  0  0  0  0  0  0
    6.4898   -0.3699   -2.1553 C   0  0  0  0  0  0  0  0  0  0  0  0
    6.0462    0.8790   -1.7219 C   0  0  0  0  0  0  0  0  0  0  0  0
    4.7746    1.0116   -1.1524 C   0  0  0  0  0  0  0  0  0  0  0  0
    6.8885    2.0266   -1.8700 C   0  0  0  0  0  0  0  0  0  0  0  0
    7.5955    2.9898   -1.9928 C   0  0  0  0  0  0  0  0  0  0  0  0
   -3.0053   -2.8520   -3.7592 H   0  0  0  0  0  0  0  0  0  0  0  0
   -3.2283   -4.3063   -2.7317 H   0  0  0  0  0  0  0  0  0  0  0  0
   -2.0412   -4.3111   -4.0519 H   0  0  0  0  0  0  0  0  0  0  0  0
   -2.8456   -2.9545   -0.8517 H   0  0  0  0  0  0  0  0  0  0  0  0
   -1.1946   -2.4785   -0.5371 H   0  0  0  0  0  0  0  0  0  0  0  0
   -1.5045   -0.5812   -2.3275 H   0  0  0  0  0  0  0  0  0  0  0  0
   -3.1803   -1.0302   -2.3511 H   0  0  0  0  0  0  0  0  0  0  0  0
    0.1032   -0.4062   -0.8963 H   0  0  0  0  0  0  0  0  0  0  0  0
   -1.4533    2.8314    2.4991 H   0  0  0  0  0  0  0  0  0  0  0  0
   -3.4104    0.7844    3.2482 H   0  0  0  0  0  0  0  0  0  0  0  0
   -3.6112   -0.4270    1.9697 H   0  0  0  0  0  0  0  0  0  0  0  0
   -5.6283    1.7729    2.6569 H   0  0  0  0  0  0  0  0  0  0  0  0
   -5.8217    0.5705    1.3699 H   0  0  0  0  0  0  0  0  0  0  0  0
   -7.5658    0.9240    3.8095 H   0  0  0  0  0  0  0  0  0  0  0  0
   -7.6410   -0.8209    4.1497 H   0  0  0  0  0  0  0  0  0  0  0  0
   -7.7879   -0.2523    2.4705 H   0  0  0  0  0  0  0  0  0  0  0  0
    3.0804    3.1988    2.5843 H   0  0  0  0  0  0  0  0  0  0  0  0
    2.2513   -0.9173   -0.2440 H   0  0  0  0  0  0  0  0  0  0  0  0
    3.7550   -2.2220   -1.3914 H   0  0  0  0  0  0  0  0  0  0  0  0
    5.9938   -2.4524   -2.3822 H   0  0  0  0  0  0  0  0  0  0  0  0
    7.4754   -0.4803   -2.6005 H   0  0  0  0  0  0  0  0  0  0  0  0
    4.4378    1.9974   -0.8411 H   0  0  0  0  0  0  0  0  0  0  0  0
    8.2207    3.8443   -2.1026 H   0  0  0  0  0  0  0  0  0  0  0  0
  1  2  1  0
  2  3  1  0
  3  4  1  0
  4  5  1  0
  5  6  1  0
  6  7  2  0
  7  8  1  0
  8  9  2  0
  9 10  1  0
 10 11  2  0
 11 12  1  0
 12 13  1  0
 13 14  1  0
 14 15  1  0
 15 16  1  0
  9 17  1  0
 17 18  2  0
 18 19  1  0
 19 20  2  0
 20 21  1  0
 21 22  1  0
 22 23  2  0
 23 24  1  0
 24 25  2  0
 25 26  1  0
 26 27  2  0
 26 28  1  0
 28 29  3  0
 11  6  1  0
 20  8  1  0
 27 22  1  0
  1 30  1  0
  1 31  1  0
  1 32  1  0
  3 33  1  0
  3 34  1  0
  4 35  1  0
  4 36  1  0
  7 37  1  0
 10 38  1  0
 13 39  1  0
 13 40  1  0
 14 41  1  0
 14 42  1  0
 16 43  1  0
 16 44  1  0
 16 45  1  0
 18 46  1  0
 21 47  1  0
 23 48  1  0
 24 49  1  0
 25 50  1  0
 27 51  1  0
 29 52  1  0
M  END
>  <energy_abs>  (16) 
58.50218752095825

>  <SMILES>  (16) 
COCCOc1cc2c(cc1OCCOC)ncnc2Nc3cccc(c3)C#C

>  <cluster_no>  (16) 
16

>  <fda_drugs_id>  (16) 
AAKJLRGGTJKAMG-UHFFFAOYSA-N

>  <initial_conformation_id>  (16) 
289

>  <minimize_method>  (16) 
MMFF

$$$$

     RDKit          3D

 52 54  0  0  0  0  0  0  0  0999 V2000
   -4.2174   -3.3735   -1.1057 C   0  0  0  0  0  0  0  0  0  0  0  0
   -3.0577   -3.0384   -0.3563 O   0  0  0  0  0  0  0  0  0  0  0  0
   -1.9402   -2.6565   -1.1634 C   0  0  0  0  0  0  0  0  0  0  0  0
   -2.1129   -1.3011   -1.8605 C   0  0  0  0  0  0  0  0  0  0  0  0
   -2.4432   -0.2524   -0.9474 O   0  0  0  0  0  0  0  0  0  0  0  0
   -1.4936    0.2179   -0.0872 C   0  0  0  0  0  0  0  0  0  0  0  0
   -0.1203    0.1715   -0.3313 C   0  0  0  0  0  0  0  0  0  0  0  0
    0.8114    0.7549    0.5716 C   0  0  0  0  0  0  0  0  0  0  0  0
    0.3436    1.4219    1.7102 C   0  0  0  0  0  0  0  0  0  0  0  0
   -1.0222    1.4645    1.9397 C   0  0  0  0  0  0  0  0  0  0  0  0
   -1.9380    0.8553    1.0758 C   0  0  0  0  0  0  0  0  0  0  0  0
   -3.2530    0.9929    1.4440 O   0  0  0  0  0  0  0  0  0  0  0  0
   -4.0015   -0.2343    1.4172 C   0  0  0  0  0  0  0  0  0  0  0  0
   -5.1097   -0.1646    2.4725 C   0  0  0  0  0  0  0  0  0  0  0  0
   -6.2864    0.5184    2.0220 O   0  0  0  0  0  0  0  0  0  0  0  0
   -6.0964    1.9161    1.8459 C   0  0  0  0  0  0  0  0  0  0  0  0
    1.1570    2.0207    2.5841 N   0  0  0  0  0  0  0  0  0  0  0  0
    2.4661    1.9677    2.3209 C   0  0  0  0  0  0  0  0  0  0  0  0
    3.0351    1.3591    1.2782 N   0  0  0  0  0  0  0  0  0  0  0  0
    2.2124    0.7462    0.4089 C   0  0  0  0  0  0  0  0  0  0  0  0
    2.7687    0.0362   -0.6916 N   0  0  0  0  0  0  0  0  0  0  0  0
    4.0827    0.1213   -1.2085 C   0  0  0  0  0  0  0  0  0  0  0  0
    4.6054   -0.9693   -1.9222 C   0  0  0  0  0  0  0  0  0  0  0  0
    5.8719   -0.9080   -2.5098 C   0  0  0  0  0  0  0  0  0  0  0  0
    6.6267    0.2589   -2.4149 C   0  0  0  0  0  0  0  0  0  0  0  0
    6.1090    1.3660   -1.7432 C   0  0  0  0  0  0  0  0  0  0  0  0
    4.8404    1.2986   -1.1562 C   0  0  0  0  0  0  0  0  0  0  0  0
    6.8713    2.5747   -1.6645 C   0  0  0  0  0  0  0  0  0  0  0  0
    7.5094    3.5898   -1.5987 C   0  0  0  0  0  0  0  0  0  0  0  0
   -4.9616   -3.7819   -0.4162 H   0  0  0  0  0  0  0  0  0  0  0  0
   -4.6451   -2.4851   -1.5775 H   0  0  0  0  0  0  0  0  0  0  0  0
   -3.9881   -4.1325   -1.8595 H   0  0  0  0  0  0  0  0  0  0  0  0
   -1.7333   -3.4419   -1.8994 H   0  0  0  0  0  0  0  0  0  0  0  0
   -1.0805   -2.6157   -0.4872 H   0  0  0  0  0  0  0  0  0  0  0  0
   -2.9537   -1.3600   -2.5597 H   0  0  0  0  0  0  0  0  0  0  0  0
   -1.2420   -1.0472   -2.4731 H   0  0  0  0  0  0  0  0  0  0  0  0
    0.2614   -0.2718   -1.2443 H   0  0  0  0  0  0  0  0  0  0  0  0
   -1.3907    1.9823    2.8225 H   0  0  0  0  0  0  0  0  0  0  0  0
   -4.4507   -0.3634    0.4276 H   0  0  0  0  0  0  0  0  0  0  0  0
   -3.3497   -1.0825    1.6591 H   0  0  0  0  0  0  0  0  0  0  0  0
   -4.7548    0.2956    3.4018 H   0  0  0  0  0  0  0  0  0  0  0  0
   -5.4324   -1.1848    2.7050 H   0  0  0  0  0  0  0  0  0  0  0  0
   -5.6251    2.3646    2.7256 H   0  0  0  0  0  0  0  0  0  0  0  0
   -5.5043    2.1139    0.9487 H   0  0  0  0  0  0  0  0  0  0  0  0
   -7.0787    2.3764    1.7073 H   0  0  0  0  0  0  0  0  0  0  0  0
    3.1293    2.4620    3.0226 H   0  0  0  0  0  0  0  0  0  0  0  0
    2.4568   -0.9279   -0.6388 H   0  0  0  0  0  0  0  0  0  0  0  0
    4.0313   -1.8865   -2.0242 H   0  0  0  0  0  0  0  0  0  0  0  0
    6.2662   -1.7674   -3.0457 H   0  0  0  0  0  0  0  0  0  0  0  0
    7.6109    0.3041   -2.8745 H   0  0  0  0  0  0  0  0  0  0  0  0
    4.4430    2.1799   -0.6590 H   0  0  0  0  0  0  0  0  0  0  0  0
    8.0729    4.4914   -1.5385 H   0  0  0  0  0  0  0  0  0  0  0  0
  1  2  1  0
  2  3  1  0
  3  4  1  0
  4  5  1  0
  5  6  1  0
  6  7  2  0
  7  8  1  0
  8  9  2  0
  9 10  1  0
 10 11  2  0
 11 12  1  0
 12 13  1  0
 13 14  1  0
 14 15  1  0
 15 16  1  0
  9 17  1  0
 17 18  2  0
 18 19  1  0
 19 20  2  0
 20 21  1  0
 21 22  1  0
 22 23  2  0
 23 24  1  0
 24 25  2  0
 25 26  1  0
 26 27  2  0
 26 28  1  0
 28 29  3  0
 11  6  1  0
 20  8  1  0
 27 22  1  0
  1 30  1  0
  1 31  1  0
  1 32  1  0
  3 33  1  0
  3 34  1  0
  4 35  1  0
  4 36  1  0
  7 37  1  0
 10 38  1  0
 13 39  1  0
 13 40  1  0
 14 41  1  0
 14 42  1  0
 16 43  1  0
 16 44  1  0
 16 45  1  0
 18 46  1  0
 21 47  1  0
 23 48  1  0
 24 49  1  0
 25 50  1  0
 27 51  1  0
 29 52  1  0
M  END
>  <energy_abs>  (17) 
62.246988267842504

>  <SMILES>  (17) 
COCCOc1cc2c(cc1OCCOC)ncnc2Nc3cccc(c3)C#C

>  <cluster_no>  (17) 
17

>  <fda_drugs_id>  (17) 
AAKJLRGGTJKAMG-UHFFFAOYSA-N

>  <initial_conformation_id>  (17) 
288

>  <minimize_method>  (17) 
MMFF

$$$$

     RDKit          3D

 52 54  0  0  0  0  0  0  0  0999 V2000
   -2.0568   -4.5932   -1.8723 C   0  0  0  0  0  0  0  0  0  0  0  0
   -2.4837   -3.2627   -2.1257 O   0  0  0  0  0  0  0  0  0  0  0  0
   -1.3771   -2.3621   -2.2283 C   0  0  0  0  0  0  0  0  0  0  0  0
   -1.8996   -0.9280   -2.3560 C   0  0  0  0  0  0  0  0  0  0  0  0
   -2.4393   -0.4366   -1.1242 O   0  0  0  0  0  0  0  0  0  0  0  0
   -1.5985   -0.0204   -0.1310 C   0  0  0  0  0  0  0  0  0  0  0  0
   -0.2307    0.2103   -0.2743 C   0  0  0  0  0  0  0  0  0  0  0  0
    0.5714    0.6120    0.8313 C   0  0  0  0  0  0  0  0  0  0  0  0
   -0.0151    0.7563    2.0957 C   0  0  0  0  0  0  0  0  0  0  0  0
   -1.3761    0.5361    2.2248 C   0  0  0  0  0  0  0  0  0  0  0  0
   -2.1685    0.1849    1.1292 C   0  0  0  0  0  0  0  0  0  0  0  0
   -3.4943   -0.0453    1.3915 O   0  0  0  0  0  0  0  0  0  0  0  0
   -4.3648    0.9204    0.7780 C   0  0  0  0  0  0  0  0  0  0  0  0
   -4.6928    2.0512    1.7559 C   0  0  0  0  0  0  0  0  0  0  0  0
   -5.5118    1.5544    2.8188 O   0  0  0  0  0  0  0  0  0  0  0  0
   -5.7938    2.5613    3.7797 C   0  0  0  0  0  0  0  0  0  0  0  0
    0.6808    1.0997    3.1825 N   0  0  0  0  0  0  0  0  0  0  0  0
    1.9922    1.2955    3.0188 C   0  0  0  0  0  0  0  0  0  0  0  0
    2.6650    1.2005    1.8699 N   0  0  0  0  0  0  0  0  0  0  0  0
    1.9570    0.8707    0.7752 C   0  0  0  0  0  0  0  0  0  0  0  0
    2.6136    0.8076   -0.4861 N   0  0  0  0  0  0  0  0  0  0  0  0
    4.0040    0.7747   -0.7452 C   0  0  0  0  0  0  0  0  0  0  0  0
    4.9234    0.1914    0.1353 C   0  0  0  0  0  0  0  0  0  0  0  0
    6.2829    0.1194   -0.1823 C   0  0  0  0  0  0  0  0  0  0  0  0
    6.7420    0.6087   -1.4037 C   0  0  0  0  0  0  0  0  0  0  0  0
    5.8369    1.1540   -2.3130 C   0  0  0  0  0  0  0  0  0  0  0  0
    4.4765    1.2237   -1.9897 C   0  0  0  0  0  0  0  0  0  0  0  0
    6.2958    1.6348   -3.5803 C   0  0  0  0  0  0  0  0  0  0  0  0
    6.6798    2.0351   -4.6450 C   0  0  0  0  0  0  0  0  0  0  0  0
   -1.5276   -4.6491   -0.9169 H   0  0  0  0  0  0  0  0  0  0  0  0
   -2.9409   -5.2344   -1.8190 H   0  0  0  0  0  0  0  0  0  0  0  0
   -1.4140   -4.9489   -2.6834 H   0  0  0  0  0  0  0  0  0  0  0  0
   -0.8054   -2.6186   -3.1266 H   0  0  0  0  0  0  0  0  0  0  0  0
   -0.7368   -2.4720   -1.3470 H   0  0  0  0  0  0  0  0  0  0  0  0
   -1.1411   -0.2475   -2.7555 H   0  0  0  0  0  0  0  0  0  0  0  0
   -2.7285   -0.9157   -3.0727 H   0  0  0  0  0  0  0  0  0  0  0  0
    0.2573    0.0625   -1.2308 H   0  0  0  0  0  0  0  0  0  0  0  0
   -1.8406    0.6379    3.2033 H   0  0  0  0  0  0  0  0  0  0  0  0
   -5.2822    0.3844    0.5109 H   0  0  0  0  0  0  0  0  0  0  0  0
   -3.9431    1.3423   -0.1415 H   0  0  0  0  0  0  0  0  0  0  0  0
   -3.7728    2.4714    2.1769 H   0  0  0  0  0  0  0  0  0  0  0  0
   -5.2408    2.8404    1.2289 H   0  0  0  0  0  0  0  0  0  0  0  0
   -6.3446    3.3868    3.3184 H   0  0  0  0  0  0  0  0  0  0  0  0
   -6.4147    2.1240    4.5655 H   0  0  0  0  0  0  0  0  0  0  0  0
   -4.8682    2.9308    4.2312 H   0  0  0  0  0  0  0  0  0  0  0  0
    2.5632    1.5611    3.9020 H   0  0  0  0  0  0  0  0  0  0  0  0
    2.1406    1.4411   -1.1221 H   0  0  0  0  0  0  0  0  0  0  0  0
    4.5925   -0.2182    1.0861 H   0  0  0  0  0  0  0  0  0  0  0  0
    6.9803   -0.3230    0.5245 H   0  0  0  0  0  0  0  0  0  0  0  0
    7.8012    0.5500   -1.6430 H   0  0  0  0  0  0  0  0  0  0  0  0
    3.7838    1.6390   -2.7168 H   0  0  0  0  0  0  0  0  0  0  0  0
    7.0306    2.3960   -5.5850 H   0  0  0  0  0  0  0  0  0  0  0  0
  1  2  1  0
  2  3  1  0
  3  4  1  0
  4  5  1  0
  5  6  1  0
  6  7  2  0
  7  8  1  0
  8  9  2  0
  9 10  1  0
 10 11  2  0
 11 12  1  0
 12 13  1  0
 13 14  1  0
 14 15  1  0
 15 16  1  0
  9 17  1  0
 17 18  2  0
 18 19  1  0
 19 20  2  0
 20 21  1  0
 21 22  1  0
 22 23  2  0
 23 24  1  0
 24 25  2  0
 25 26  1  0
 26 27  2  0
 26 28  1  0
 28 29  3  0
 11  6  1  0
 20  8  1  0
 27 22  1  0
  1 30  1  0
  1 31  1  0
  1 32  1  0
  3 33  1  0
  3 34  1  0
  4 35  1  0
  4 36  1  0
  7 37  1  0
 10 38  1  0
 13 39  1  0
 13 40  1  0
 14 41  1  0
 14 42  1  0
 16 43  1  0
 16 44  1  0
 16 45  1  0
 18 46  1  0
 21 47  1  0
 23 48  1  0
 24 49  1  0
 25 50  1  0
 27 51  1  0
 29 52  1  0
M  END
>  <energy_abs>  (18) 
63.33225639022331

>  <SMILES>  (18) 
COCCOc1cc2c(cc1OCCOC)ncnc2Nc3cccc(c3)C#C

>  <cluster_no>  (18) 
18

>  <fda_drugs_id>  (18) 
AAKJLRGGTJKAMG-UHFFFAOYSA-N

>  <initial_conformation_id>  (18) 
287

>  <minimize_method>  (18) 
MMFF

$$$$

     RDKit          3D

 52 54  0  0  0  0  0  0  0  0999 V2000
   -1.0138   -3.3589   -4.0085 C   0  0  0  0  0  0  0  0  0  0  0  0
   -1.1098   -2.6468   -2.7810 O   0  0  0  0  0  0  0  0  0  0  0  0
   -2.4672   -2.5401   -2.3363 C   0  0  0  0  0  0  0  0  0  0  0  0
   -2.5079   -1.7709   -1.0169 C   0  0  0  0  0  0  0  0  0  0  0  0
   -2.2302   -0.3855   -1.2906 O   0  0  0  0  0  0  0  0  0  0  0  0
   -1.5737    0.1903   -0.2354 C   0  0  0  0  0  0  0  0  0  0  0  0
   -0.1976    0.3618   -0.3626 C   0  0  0  0  0  0  0  0  0  0  0  0
    0.5462    0.9789    0.6689 C   0  0  0  0  0  0  0  0  0  0  0  0
   -0.1229    1.4104    1.8236 C   0  0  0  0  0  0  0  0  0  0  0  0
   -1.5039    1.2403    1.9173 C   0  0  0  0  0  0  0  0  0  0  0  0
   -2.2505    0.6487    0.8953 C   0  0  0  0  0  0  0  0  0  0  0  0
   -3.6027    0.4438    0.9211 O   0  0  0  0  0  0  0  0  0  0  0  0
   -4.3875    1.2170    1.8296 C   0  0  0  0  0  0  0  0  0  0  0  0
   -4.6952    0.4199    3.0970 C   0  0  0  0  0  0  0  0  0  0  0  0
   -5.4111    1.1889    4.0632 O   0  0  0  0  0  0  0  0  0  0  0  0
   -6.7927    1.3226    3.7612 C   0  0  0  0  0  0  0  0  0  0  0  0
    0.5137    1.9803    2.8488 N   0  0  0  0  0  0  0  0  0  0  0  0
    1.8393    2.1207    2.7324 C   0  0  0  0  0  0  0  0  0  0  0  0
    2.5838    1.7572    1.6862 N   0  0  0  0  0  0  0  0  0  0  0  0
    1.9407    1.1957    0.6468 C   0  0  0  0  0  0  0  0  0  0  0  0
    2.6751    0.7971   -0.5028 N   0  0  0  0  0  0  0  0  0  0  0  0
    4.0717    0.7021   -0.6929 C   0  0  0  0  0  0  0  0  0  0  0  0
    4.9747    0.4864    0.3540 C   0  0  0  0  0  0  0  0  0  0  0  0
    6.3439    0.3335    0.1089 C   0  0  0  0  0  0  0  0  0  0  0  0
    6.8287    0.3636   -1.1964 C   0  0  0  0  0  0  0  0  0  0  0  0
    5.9412    0.5341   -2.2572 C   0  0  0  0  0  0  0  0  0  0  0  0
    4.5734    0.6899   -2.0055 C   0  0  0  0  0  0  0  0  0  0  0  0
    6.4251    0.5371   -3.6038 C   0  0  0  0  0  0  0  0  0  0  0  0
    6.8278    0.5362   -4.7351 C   0  0  0  0  0  0  0  0  0  0  0  0
   -1.5890   -2.8563   -4.7912 H   0  0  0  0  0  0  0  0  0  0  0  0
    0.0367   -3.3864   -4.3112 H   0  0  0  0  0  0  0  0  0  0  0  0
   -1.3688   -4.3862   -3.8788 H   0  0  0  0  0  0  0  0  0  0  0  0
   -2.8720   -3.5477   -2.1869 H   0  0  0  0  0  0  0  0  0  0  0  0
   -3.0536   -2.0169   -3.0989 H   0  0  0  0  0  0  0  0  0  0  0  0
   -3.5116   -1.8415   -0.5820 H   0  0  0  0  0  0  0  0  0  0  0  0
   -1.7778   -2.2002   -0.3186 H   0  0  0  0  0  0  0  0  0  0  0  0
    0.2861   -0.0130   -1.2616 H   0  0  0  0  0  0  0  0  0  0  0  0
   -1.9768    1.5797    2.8343 H   0  0  0  0  0  0  0  0  0  0  0  0
   -5.3286    1.4351    1.3105 H   0  0  0  0  0  0  0  0  0  0  0  0
   -3.9561    2.2005    2.0503 H   0  0  0  0  0  0  0  0  0  0  0  0
   -5.2353   -0.5059    2.8594 H   0  0  0  0  0  0  0  0  0  0  0  0
   -3.7586    0.1052    3.5693 H   0  0  0  0  0  0  0  0  0  0  0  0
   -6.9390    1.9276    2.8624 H   0  0  0  0  0  0  0  0  0  0  0  0
   -7.2552    0.3389    3.6350 H   0  0  0  0  0  0  0  0  0  0  0  0
   -7.2802    1.8304    4.5986 H   0  0  0  0  0  0  0  0  0  0  0  0
    2.3605    2.5746    3.5688 H   0  0  0  0  0  0  0  0  0  0  0  0
    2.2118    1.1465   -1.3351 H   0  0  0  0  0  0  0  0  0  0  0  0
    4.6267    0.4272    1.3813 H   0  0  0  0  0  0  0  0  0  0  0  0
    7.0270    0.1843    0.9400 H   0  0  0  0  0  0  0  0  0  0  0  0
    7.8918    0.2422   -1.3805 H   0  0  0  0  0  0  0  0  0  0  0  0
    3.8938    0.8040   -2.8465 H   0  0  0  0  0  0  0  0  0  0  0  0
    7.1855    0.5364   -5.7385 H   0  0  0  0  0  0  0  0  0  0  0  0
  1  2  1  0
  2  3  1  0
  3  4  1  0
  4  5  1  0
  5  6  1  0
  6  7  2  0
  7  8  1  0
  8  9  2  0
  9 10  1  0
 10 11  2  0
 11 12  1  0
 12 13  1  0
 13 14  1  0
 14 15  1  0
 15 16  1  0
  9 17  1  0
 17 18  2  0
 18 19  1  0
 19 20  2  0
 20 21  1  0
 21 22  1  0
 22 23  2  0
 23 24  1  0
 24 25  2  0
 25 26  1  0
 26 27  2  0
 26 28  1  0
 28 29  3  0
 11  6  1  0
 20  8  1  0
 27 22  1  0
  1 30  1  0
  1 31  1  0
  1 32  1  0
  3 33  1  0
  3 34  1  0
  4 35  1  0
  4 36  1  0
  7 37  1  0
 10 38  1  0
 13 39  1  0
 13 40  1  0
 14 41  1  0
 14 42  1  0
 16 43  1  0
 16 44  1  0
 16 45  1  0
 18 46  1  0
 21 47  1  0
 23 48  1  0
 24 49  1  0
 25 50  1  0
 27 51  1  0
 29 52  1  0
M  END
>  <energy_abs>  (19) 
59.57045615904915

>  <SMILES>  (19) 
COCCOc1cc2c(cc1OCCOC)ncnc2Nc3cccc(c3)C#C

>  <cluster_no>  (19) 
19

>  <fda_drugs_id>  (19) 
AAKJLRGGTJKAMG-UHFFFAOYSA-N

>  <initial_conformation_id>  (19) 
286

>  <minimize_method>  (19) 
MMFF

$$$$

     RDKit          3D

 52 54  0  0  0  0  0  0  0  0999 V2000
   -4.5408   -3.8568   -2.8453 C   0  0  0  0  0  0  0  0  0  0  0  0
   -3.1694   -3.9555   -2.4848 O   0  0  0  0  0  0  0  0  0  0  0  0
   -2.4703   -2.7181   -2.6209 C   0  0  0  0  0  0  0  0  0  0  0  0
   -2.6241   -1.8344   -1.3831 C   0  0  0  0  0  0  0  0  0  0  0  0
   -1.8527   -0.6432   -1.5806 O   0  0  0  0  0  0  0  0  0  0  0  0
   -1.3399   -0.1143   -0.4241 C   0  0  0  0  0  0  0  0  0  0  0  0
    0.0210    0.1914   -0.4738 C   0  0  0  0  0  0  0  0  0  0  0  0
    0.6806    0.7634    0.6391 C   0  0  0  0  0  0  0  0  0  0  0  0
   -0.0532    1.0217    1.8026 C   0  0  0  0  0  0  0  0  0  0  0  0
   -1.4151    0.7350    1.8230 C   0  0  0  0  0  0  0  0  0  0  0  0
   -2.0828    0.1817    0.7243 C   0  0  0  0  0  0  0  0  0  0  0  0
   -3.4270   -0.0652    0.6733 O   0  0  0  0  0  0  0  0  0  0  0  0
   -4.2316    0.1640    1.8298 C   0  0  0  0  0  0  0  0  0  0  0  0
   -4.7161    1.6129    1.8936 C   0  0  0  0  0  0  0  0  0  0  0  0
   -5.5566    1.8430    3.0241 O   0  0  0  0  0  0  0  0  0  0  0  0
   -4.8258    2.1079    4.2142 C   0  0  0  0  0  0  0  0  0  0  0  0
    0.4968    1.5438    2.9011 N   0  0  0  0  0  0  0  0  0  0  0  0
    1.8067    1.8070    2.8494 C   0  0  0  0  0  0  0  0  0  0  0  0
    2.6098    1.6102    1.8017 N   0  0  0  0  0  0  0  0  0  0  0  0
    2.0492    1.0993    0.6912 C   0  0  0  0  0  0  0  0  0  0  0  0
    2.8474    0.9011   -0.4679 N   0  0  0  0  0  0  0  0  0  0  0  0
    4.2563    0.9193   -0.5827 C   0  0  0  0  0  0  0  0  0  0  0  0
    5.1068    0.5502    0.4664 C   0  0  0  0  0  0  0  0  0  0  0  0
    6.4942    0.5151    0.2953 C   0  0  0  0  0  0  0  0  0  0  0  0
    7.0528    0.8260   -0.9421 C   0  0  0  0  0  0  0  0  0  0  0  0
    6.2221    1.1622   -2.0099 C   0  0  0  0  0  0  0  0  0  0  0  0
    4.8341    1.1954   -1.8327 C   0  0  0  0  0  0  0  0  0  0  0  0
    6.7870    1.4679   -3.2891 C   0  0  0  0  0  0  0  0  0  0  0  0
    7.2593    1.7236   -4.3630 C   0  0  0  0  0  0  0  0  0  0  0  0
   -5.0657   -3.1388   -2.2090 H   0  0  0  0  0  0  0  0  0  0  0  0
   -4.6371   -3.5700   -3.8970 H   0  0  0  0  0  0  0  0  0  0  0  0
   -5.0012   -4.8394   -2.7110 H   0  0  0  0  0  0  0  0  0  0  0  0
   -1.4093   -2.9563   -2.7560 H   0  0  0  0  0  0  0  0  0  0  0  0
   -2.7797   -2.1872   -3.5290 H   0  0  0  0  0  0  0  0  0  0  0  0
   -3.6775   -1.5664   -1.2558 H   0  0  0  0  0  0  0  0  0  0  0  0
   -2.3003   -2.3989   -0.4990 H   0  0  0  0  0  0  0  0  0  0  0  0
    0.5709   -0.0438   -1.3822 H   0  0  0  0  0  0  0  0  0  0  0  0
   -1.9415    0.9772    2.7407 H   0  0  0  0  0  0  0  0  0  0  0  0
   -3.7435   -0.1750    2.7497 H   0  0  0  0  0  0  0  0  0  0  0  0
   -5.1111   -0.4851    1.7354 H   0  0  0  0  0  0  0  0  0  0  0  0
   -3.8865    2.3288    1.8750 H   0  0  0  0  0  0  0  0  0  0  0  0
   -5.3104    1.8227    0.9968 H   0  0  0  0  0  0  0  0  0  0  0  0
   -4.2127    1.2486    4.4968 H   0  0  0  0  0  0  0  0  0  0  0  0
   -4.1974    2.9948    4.0890 H   0  0  0  0  0  0  0  0  0  0  0  0
   -5.5408    2.3008    5.0185 H   0  0  0  0  0  0  0  0  0  0  0  0
    2.2601    2.2228    3.7425 H   0  0  0  0  0  0  0  0  0  0  0  0
    2.4052    1.3654   -1.2544 H   0  0  0  0  0  0  0  0  0  0  0  0
    4.6985    0.2767    1.4359 H   0  0  0  0  0  0  0  0  0  0  0  0
    7.1340    0.2388    1.1290 H   0  0  0  0  0  0  0  0  0  0  0  0
    8.1322    0.7957   -1.0688 H   0  0  0  0  0  0  0  0  0  0  0  0
    4.2015    1.4439   -2.6812 H   0  0  0  0  0  0  0  0  0  0  0  0
    7.6801    1.9511   -5.3150 H   0  0  0  0  0  0  0  0  0  0  0  0
  1  2  1  0
  2  3  1  0
  3  4  1  0
  4  5  1  0
  5  6  1  0
  6  7  2  0
  7  8  1  0
  8  9  2  0
  9 10  1  0
 10 11  2  0
 11 12  1  0
 12 13  1  0
 13 14  1  0
 14 15  1  0
 15 16  1  0
  9 17  1  0
 17 18  2  0
 18 19  1  0
 19 20  2  0
 20 21  1  0
 21 22  1  0
 22 23  2  0
 23 24  1  0
 24 25  2  0
 25 26  1  0
 26 27  2  0
 26 28  1  0
 28 29  3  0
 11  6  1  0
 20  8  1  0
 27 22  1  0
  1 30  1  0
  1 31  1  0
  1 32  1  0
  3 33  1  0
  3 34  1  0
  4 35  1  0
  4 36  1  0
  7 37  1  0
 10 38  1  0
 13 39  1  0
 13 40  1  0
 14 41  1  0
 14 42  1  0
 16 43  1  0
 16 44  1  0
 16 45  1  0
 18 46  1  0
 21 47  1  0
 23 48  1  0
 24 49  1  0
 25 50  1  0
 27 51  1  0
 29 52  1  0
M  END
>  <energy_abs>  (20) 
59.662031475461305

>  <SMILES>  (20) 
COCCOc1cc2c(cc1OCCOC)ncnc2Nc3cccc(c3)C#C

>  <cluster_no>  (20) 
20

>  <fda_drugs_id>  (20) 
AAKJLRGGTJKAMG-UHFFFAOYSA-N

>  <initial_conformation_id>  (20) 
285

>  <minimize_method>  (20) 
MMFF

$$$$

     RDKit          3D

 52 54  0  0  0  0  0  0  0  0999 V2000
   -1.6394   -2.9313   -3.7777 C   0  0  0  0  0  0  0  0  0  0  0  0
   -1.6531   -2.2934   -2.5059 O   0  0  0  0  0  0  0  0  0  0  0  0
   -2.9613   -1.8013   -2.1809 C   0  0  0  0  0  0  0  0  0  0  0  0
   -2.9098   -1.0508   -0.8512 C   0  0  0  0  0  0  0  0  0  0  0  0
   -2.2327    0.1998   -1.0683 O   0  0  0  0  0  0  0  0  0  0  0  0
   -1.4872    0.5729    0.0184 C   0  0  0  0  0  0  0  0  0  0  0  0
   -0.1126    0.6626   -0.1855 C   0  0  0  0  0  0  0  0  0  0  0  0
    0.7474    1.0491    0.8670 C   0  0  0  0  0  0  0  0  0  0  0  0
    0.1942    1.3872    2.1097 C   0  0  0  0  0  0  0  0  0  0  0  0
   -1.1858    1.3113    2.2825 C   0  0  0  0  0  0  0  0  0  0  0  0
   -2.0435    0.9063    1.2555 C   0  0  0  0  0  0  0  0  0  0  0  0
   -3.4056    0.8331    1.3538 O   0  0  0  0  0  0  0  0  0  0  0  0
   -3.9956    1.0443    2.6410 C   0  0  0  0  0  0  0  0  0  0  0  0
   -5.4981    0.7875    2.5298 C   0  0  0  0  0  0  0  0  0  0  0  0
   -5.7343   -0.6220    2.4353 O   0  0  0  0  0  0  0  0  0  0  0  0
   -7.1161   -0.9108    2.2763 C   0  0  0  0  0  0  0  0  0  0  0  0
    0.9398    1.7845    3.1438 N   0  0  0  0  0  0  0  0  0  0  0  0
    2.2603    1.8496    2.9422 C   0  0  0  0  0  0  0  0  0  0  0  0
    2.9037    1.5444    1.8129 N   0  0  0  0  0  0  0  0  0  0  0  0
    2.1521    1.1308    0.7768 C   0  0  0  0  0  0  0  0  0  0  0  0
    2.7822    0.7489   -0.4396 N   0  0  0  0  0  0  0  0  0  0  0  0
    4.1276    0.9289   -0.8330 C   0  0  0  0  0  0  0  0  0  0  0  0
    4.9051    2.0115   -0.4045 C   0  0  0  0  0  0  0  0  0  0  0  0
    6.2145    2.1868   -0.8616 C   0  0  0  0  0  0  0  0  0  0  0  0
    6.7600    1.2909   -1.7785 C   0  0  0  0  0  0  0  0  0  0  0  0
    5.9908    0.2269   -2.2461 C   0  0  0  0  0  0  0  0  0  0  0  0
    4.6804    0.0565   -1.7854 C   0  0  0  0  0  0  0  0  0  0  0  0
    6.5387   -0.6896   -3.1993 C   0  0  0  0  0  0  0  0  0  0  0  0
    6.9970   -1.4603   -3.9982 C   0  0  0  0  0  0  0  0  0  0  0  0
   -0.6225   -3.2771   -3.9831 H   0  0  0  0  0  0  0  0  0  0  0  0
   -1.9332   -2.2265   -4.5620 H   0  0  0  0  0  0  0  0  0  0  0  0
   -2.3128   -3.7931   -3.7782 H   0  0  0  0  0  0  0  0  0  0  0  0
   -3.6461   -2.6528   -2.0981 H   0  0  0  0  0  0  0  0  0  0  0  0
   -3.3021   -1.1307   -2.9792 H   0  0  0  0  0  0  0  0  0  0  0  0
   -2.3961   -1.6678   -0.0998 H   0  0  0  0  0  0  0  0  0  0  0  0
   -3.9328   -0.8372   -0.5205 H   0  0  0  0  0  0  0  0  0  0  0  0
    0.2784    0.4267   -1.1724 H   0  0  0  0  0  0  0  0  0  0  0  0
   -1.5722    1.5914    3.2579 H   0  0  0  0  0  0  0  0  0  0  0  0
   -3.8362    2.0845    2.9438 H   0  0  0  0  0  0  0  0  0  0  0  0
   -3.5581    0.3527    3.3733 H   0  0  0  0  0  0  0  0  0  0  0  0
   -6.0024    1.1695    3.4246 H   0  0  0  0  0  0  0  0  0  0  0  0
   -5.9026    1.2820    1.6380 H   0  0  0  0  0  0  0  0  0  0  0  0
   -7.2372   -1.9968    2.2260 H   0  0  0  0  0  0  0  0  0  0  0  0
   -7.4946   -0.4731    1.3466 H   0  0  0  0  0  0  0  0  0  0  0  0
   -7.6875   -0.5333    3.1303 H   0  0  0  0  0  0  0  0  0  0  0  0
    2.8683    2.1790    3.7778 H   0  0  0  0  0  0  0  0  0  0  0  0
    2.4358   -0.1657   -0.7131 H   0  0  0  0  0  0  0  0  0  0  0  0
    4.4965    2.7399    0.2910 H   0  0  0  0  0  0  0  0  0  0  0  0
    6.8040    3.0255   -0.5027 H   0  0  0  0  0  0  0  0  0  0  0  0
    7.7791    1.4319   -2.1290 H   0  0  0  0  0  0  0  0  0  0  0  0
    4.0902   -0.7714   -2.1710 H   0  0  0  0  0  0  0  0  0  0  0  0
    7.4039   -2.1448   -4.7059 H   0  0  0  0  0  0  0  0  0  0  0  0
  1  2  1  0
  2  3  1  0
  3  4  1  0
  4  5  1  0
  5  6  1  0
  6  7  2  0
  7  8  1  0
  8  9  2  0
  9 10  1  0
 10 11  2  0
 11 12  1  0
 12 13  1  0
 13 14  1  0
 14 15  1  0
 15 16  1  0
  9 17  1  0
 17 18  2  0
 18 19  1  0
 19 20  2  0
 20 21  1  0
 21 22  1  0
 22 23  2  0
 23 24  1  0
 24 25  2  0
 25 26  1  0
 26 27  2  0
 26 28  1  0
 28 29  3  0
 11  6  1  0
 20  8  1  0
 27 22  1  0
  1 30  1  0
  1 31  1  0
  1 32  1  0
  3 33  1  0
  3 34  1  0
  4 35  1  0
  4 36  1  0
  7 37  1  0
 10 38  1  0
 13 39  1  0
 13 40  1  0
 14 41  1  0
 14 42  1  0
 16 43  1  0
 16 44  1  0
 16 45  1  0
 18 46  1  0
 21 47  1  0
 23 48  1  0
 24 49  1  0
 25 50  1  0
 27 51  1  0
 29 52  1  0
M  END
>  <energy_abs>  (21) 
56.46062634315687

>  <SMILES>  (21) 
COCCOc1cc2c(cc1OCCOC)ncnc2Nc3cccc(c3)C#C

>  <cluster_no>  (21) 
21

>  <fda_drugs_id>  (21) 
AAKJLRGGTJKAMG-UHFFFAOYSA-N

>  <initial_conformation_id>  (21) 
284

>  <minimize_method>  (21) 
MMFF

$$$$

     RDKit          3D

 52 54  0  0  0  0  0  0  0  0999 V2000
   -5.5290   -0.7912   -2.3299 C   0  0  0  0  0  0  0  0  0  0  0  0
   -4.4704   -1.6869   -2.0097 O   0  0  0  0  0  0  0  0  0  0  0  0
   -3.2284   -1.3374   -2.6320 C   0  0  0  0  0  0  0  0  0  0  0  0
   -2.4948   -0.2071   -1.9044 C   0  0  0  0  0  0  0  0  0  0  0  0
   -2.0492   -0.6906   -0.6249 O   0  0  0  0  0  0  0  0  0  0  0  0
   -1.4266    0.3088    0.0689 C   0  0  0  0  0  0  0  0  0  0  0  0
   -0.0408    0.4067   -0.0549 C   0  0  0  0  0  0  0  0  0  0  0  0
    0.6781    1.4342    0.6049 C   0  0  0  0  0  0  0  0  0  0  0  0
   -0.0177    2.3387    1.4176 C   0  0  0  0  0  0  0  0  0  0  0  0
   -1.3950    2.2038    1.5440 C   0  0  0  0  0  0  0  0  0  0  0  0
   -2.1108    1.1874    0.9034 C   0  0  0  0  0  0  0  0  0  0  0  0
   -3.4570    1.2005    1.1412 O   0  0  0  0  0  0  0  0  0  0  0  0
   -4.0935   -0.0609    1.3777 C   0  0  0  0  0  0  0  0  0  0  0  0
   -3.5274   -0.8304    2.5744 C   0  0  0  0  0  0  0  0  0  0  0  0
   -4.2989   -1.9957    2.8804 O   0  0  0  0  0  0  0  0  0  0  0  0
   -4.0418   -3.0772    1.9928 C   0  0  0  0  0  0  0  0  0  0  0  0
    0.5890    3.3259    2.0803 N   0  0  0  0  0  0  0  0  0  0  0  0
    1.9156    3.4160    1.9422 C   0  0  0  0  0  0  0  0  0  0  0  0
    2.6866    2.6226    1.1947 N   0  0  0  0  0  0  0  0  0  0  0  0
    2.0717    1.6379    0.5171 C   0  0  0  0  0  0  0  0  0  0  0  0
    2.8337    0.7843   -0.3282 N   0  0  0  0  0  0  0  0  0  0  0  0
    4.2385    0.6449   -0.4186 C   0  0  0  0  0  0  0  0  0  0  0  0
    5.1026    0.8995    0.6518 C   0  0  0  0  0  0  0  0  0  0  0  0
    6.4797    0.6812    0.5383 C   0  0  0  0  0  0  0  0  0  0  0  0
    7.0118    0.1728   -0.6436 C   0  0  0  0  0  0  0  0  0  0  0  0
    6.1647   -0.1262   -1.7083 C   0  0  0  0  0  0  0  0  0  0  0  0
    4.7880    0.0971   -1.5897 C   0  0  0  0  0  0  0  0  0  0  0  0
    6.6982   -0.6709   -2.9202 C   0  0  0  0  0  0  0  0  0  0  0  0
    7.1417   -1.1332   -3.9361 C   0  0  0  0  0  0  0  0  0  0  0  0
   -5.3197    0.2137   -1.9532 H   0  0  0  0  0  0  0  0  0  0  0  0
   -5.6920   -0.7631   -3.4107 H   0  0  0  0  0  0  0  0  0  0  0  0
   -6.4412   -1.1561   -1.8509 H   0  0  0  0  0  0  0  0  0  0  0  0
   -3.3999   -1.0770   -3.6829 H   0  0  0  0  0  0  0  0  0  0  0  0
   -2.6093   -2.2408   -2.6057 H   0  0  0  0  0  0  0  0  0  0  0  0
   -1.6244    0.0889   -2.5025 H   0  0  0  0  0  0  0  0  0  0  0  0
   -3.1526    0.6603   -1.7707 H   0  0  0  0  0  0  0  0  0  0  0  0
    0.4793   -0.3266   -0.6666 H   0  0  0  0  0  0  0  0  0  0  0  0
   -1.9316    2.9068    2.1786 H   0  0  0  0  0  0  0  0  0  0  0  0
   -4.1314   -0.6629    0.4688 H   0  0  0  0  0  0  0  0  0  0  0  0
   -5.1460    0.1637    1.5919 H   0  0  0  0  0  0  0  0  0  0  0  0
   -2.4758   -1.1071    2.4329 H   0  0  0  0  0  0  0  0  0  0  0  0
   -3.5568   -0.1832    3.4573 H   0  0  0  0  0  0  0  0  0  0  0  0
   -2.9775   -3.3351    1.9916 H   0  0  0  0  0  0  0  0  0  0  0  0
   -4.6063   -3.9462    2.3442 H   0  0  0  0  0  0  0  0  0  0  0  0
   -4.3738   -2.8422    0.9781 H   0  0  0  0  0  0  0  0  0  0  0  0
    2.4130    4.2114    2.4874 H   0  0  0  0  0  0  0  0  0  0  0  0
    2.4101    0.7785   -1.2498 H   0  0  0  0  0  0  0  0  0  0  0  0
    4.7161    1.2694    1.5977 H   0  0  0  0  0  0  0  0  0  0  0  0
    7.1317    0.9019    1.3790 H   0  0  0  0  0  0  0  0  0  0  0  0
    8.0835    0.0037   -0.7244 H   0  0  0  0  0  0  0  0  0  0  0  0
    4.1414   -0.1590   -2.4250 H   0  0  0  0  0  0  0  0  0  0  0  0
    7.5373   -1.5427   -4.8358 H   0  0  0  0  0  0  0  0  0  0  0  0
  1  2  1  0
  2  3  1  0
  3  4  1  0
  4  5  1  0
  5  6  1  0
  6  7  2  0
  7  8  1  0
  8  9  2  0
  9 10  1  0
 10 11  2  0
 11 12  1  0
 12 13  1  0
 13 14  1  0
 14 15  1  0
 15 16  1  0
  9 17  1  0
 17 18  2  0
 18 19  1  0
 19 20  2  0
 20 21  1  0
 21 22  1  0
 22 23  2  0
 23 24  1  0
 24 25  2  0
 25 26  1  0
 26 27  2  0
 26 28  1  0
 28 29  3  0
 11  6  1  0
 20  8  1  0
 27 22  1  0
  1 30  1  0
  1 31  1  0
  1 32  1  0
  3 33  1  0
  3 34  1  0
  4 35  1  0
  4 36  1  0
  7 37  1  0
 10 38  1  0
 13 39  1  0
 13 40  1  0
 14 41  1  0
 14 42  1  0
 16 43  1  0
 16 44  1  0
 16 45  1  0
 18 46  1  0
 21 47  1  0
 23 48  1  0
 24 49  1  0
 25 50  1  0
 27 51  1  0
 29 52  1  0
M  END
>  <energy_abs>  (22) 
61.01034528867422

>  <SMILES>  (22) 
COCCOc1cc2c(cc1OCCOC)ncnc2Nc3cccc(c3)C#C

>  <cluster_no>  (22) 
22

>  <fda_drugs_id>  (22) 
AAKJLRGGTJKAMG-UHFFFAOYSA-N

>  <initial_conformation_id>  (22) 
283

>  <minimize_method>  (22) 
MMFF

$$$$

     RDKit          3D

 52 54  0  0  0  0  0  0  0  0999 V2000
   -3.9424   -0.8762   -4.7545 C   0  0  0  0  0  0  0  0  0  0  0  0
   -2.5671   -1.0186   -4.4152 O   0  0  0  0  0  0  0  0  0  0  0  0
   -2.3676   -1.6074   -3.1289 C   0  0  0  0  0  0  0  0  0  0  0  0
   -2.5829   -0.6170   -1.9826 C   0  0  0  0  0  0  0  0  0  0  0  0
   -2.0927   -1.2120   -0.7705 O   0  0  0  0  0  0  0  0  0  0  0  0
   -1.4863   -0.2622    0.0113 C   0  0  0  0  0  0  0  0  0  0  0  0
   -0.1128   -0.0815   -0.1281 C   0  0  0  0  0  0  0  0  0  0  0  0
    0.5631    0.8748    0.6631 C   0  0  0  0  0  0  0  0  0  0  0  0
   -0.1571    1.6035    1.6208 C   0  0  0  0  0  0  0  0  0  0  0  0
   -1.5282    1.3891    1.7493 C   0  0  0  0  0  0  0  0  0  0  0  0
   -2.2108    0.4584    0.9615 C   0  0  0  0  0  0  0  0  0  0  0  0
   -3.5505    0.1926    1.0236 O   0  0  0  0  0  0  0  0  0  0  0  0
   -4.2903    0.6313    2.1636 C   0  0  0  0  0  0  0  0  0  0  0  0
   -4.0396   -0.2528    3.3843 C   0  0  0  0  0  0  0  0  0  0  0  0
   -4.8610    0.1938    4.4637 O   0  0  0  0  0  0  0  0  0  0  0  0
   -4.6713   -0.6013    5.6271 C   0  0  0  0  0  0  0  0  0  0  0  0
    0.4216    2.5035    2.4200 N   0  0  0  0  0  0  0  0  0  0  0  0
    1.7396    2.6807    2.2734 C   0  0  0  0  0  0  0  0  0  0  0  0
    2.5274    2.0591    1.3915 N   0  0  0  0  0  0  0  0  0  0  0  0
    1.9387    1.1687    0.5734 C   0  0  0  0  0  0  0  0  0  0  0  0
    2.7080    0.5338   -0.4418 N   0  0  0  0  0  0  0  0  0  0  0  0
    4.1154    0.5140   -0.5800 C   0  0  0  0  0  0  0  0  0  0  0  0
    4.9789    0.4694    0.5227 C   0  0  0  0  0  0  0  0  0  0  0  0
    6.3646    0.3851    0.3523 C   0  0  0  0  0  0  0  0  0  0  0  0
    6.9072    0.3284   -0.9302 C   0  0  0  0  0  0  0  0  0  0  0  0
    6.0619    0.3432   -2.0412 C   0  0  0  0  0  0  0  0  0  0  0  0
    4.6754    0.4197   -1.8648 C   0  0  0  0  0  0  0  0  0  0  0  0
    6.6100    0.2842   -3.3625 C   0  0  0  0  0  0  0  0  0  0  0  0
    7.0677    0.2500   -4.4720 C   0  0  0  0  0  0  0  0  0  0  0  0
   -4.4299   -1.8568   -4.7853 H   0  0  0  0  0  0  0  0  0  0  0  0
   -4.4590   -0.2192   -4.0449 H   0  0  0  0  0  0  0  0  0  0  0  0
   -4.0005   -0.4270   -5.7527 H   0  0  0  0  0  0  0  0  0  0  0  0
   -2.9967   -2.4964   -3.0094 H   0  0  0  0  0  0  0  0  0  0  0  0
   -1.3304   -1.9623   -3.0919 H   0  0  0  0  0  0  0  0  0  0  0  0
   -3.6517   -0.4069   -1.8630 H   0  0  0  0  0  0  0  0  0  0  0  0
   -2.0887    0.3331   -2.2197 H   0  0  0  0  0  0  0  0  0  0  0  0
    0.4274   -0.6965   -0.8451 H   0  0  0  0  0  0  0  0  0  0  0  0
   -2.0476    1.9877    2.4916 H   0  0  0  0  0  0  0  0  0  0  0  0
   -4.1422    1.6961    2.3767 H   0  0  0  0  0  0  0  0  0  0  0  0
   -5.3511    0.5517    1.8957 H   0  0  0  0  0  0  0  0  0  0  0  0
   -4.2734   -1.2964    3.1397 H   0  0  0  0  0  0  0  0  0  0  0  0
   -2.9865   -0.2102    3.6843 H   0  0  0  0  0  0  0  0  0  0  0  0
   -5.3351   -0.2276    6.4120 H   0  0  0  0  0  0  0  0  0  0  0  0
   -4.9231   -1.6470    5.4239 H   0  0  0  0  0  0  0  0  0  0  0  0
   -3.6371   -0.5242    5.9773 H   0  0  0  0  0  0  0  0  0  0  0  0
    2.2130    3.4041    2.9290 H   0  0  0  0  0  0  0  0  0  0  0  0
    2.2565    0.7052   -1.3346 H   0  0  0  0  0  0  0  0  0  0  0  0
    4.5787    0.4921    1.5330 H   0  0  0  0  0  0  0  0  0  0  0  0
    7.0173    0.3595    1.2230 H   0  0  0  0  0  0  0  0  0  0  0  0
    7.9858    0.2670   -1.0559 H   0  0  0  0  0  0  0  0  0  0  0  0
    4.0310    0.4157   -2.7423 H   0  0  0  0  0  0  0  0  0  0  0  0
    7.4742    0.2267   -5.4552 H   0  0  0  0  0  0  0  0  0  0  0  0
  1  2  1  0
  2  3  1  0
  3  4  1  0
  4  5  1  0
  5  6  1  0
  6  7  2  0
  7  8  1  0
  8  9  2  0
  9 10  1  0
 10 11  2  0
 11 12  1  0
 12 13  1  0
 13 14  1  0
 14 15  1  0
 15 16  1  0
  9 17  1  0
 17 18  2  0
 18 19  1  0
 19 20  2  0
 20 21  1  0
 21 22  1  0
 22 23  2  0
 23 24  1  0
 24 25  2  0
 25 26  1  0
 26 27  2  0
 26 28  1  0
 28 29  3  0
 11  6  1  0
 20  8  1  0
 27 22  1  0
  1 30  1  0
  1 31  1  0
  1 32  1  0
  3 33  1  0
  3 34  1  0
  4 35  1  0
  4 36  1  0
  7 37  1  0
 10 38  1  0
 13 39  1  0
 13 40  1  0
 14 41  1  0
 14 42  1  0
 16 43  1  0
 16 44  1  0
 16 45  1  0
 18 46  1  0
 21 47  1  0
 23 48  1  0
 24 49  1  0
 25 50  1  0
 27 51  1  0
 29 52  1  0
M  END
>  <energy_abs>  (23) 
59.39527725703931

>  <SMILES>  (23) 
COCCOc1cc2c(cc1OCCOC)ncnc2Nc3cccc(c3)C#C

>  <cluster_no>  (23) 
23

>  <fda_drugs_id>  (23) 
AAKJLRGGTJKAMG-UHFFFAOYSA-N

>  <initial_conformation_id>  (23) 
282

>  <minimize_method>  (23) 
MMFF

$$$$

     RDKit          3D

 52 54  0  0  0  0  0  0  0  0999 V2000
   -1.8219    0.8454   -4.0901 C   0  0  0  0  0  0  0  0  0  0  0  0
   -1.4661   -0.1529   -3.1414 O   0  0  0  0  0  0  0  0  0  0  0  0
   -2.5402   -1.0778   -2.9279 C   0  0  0  0  0  0  0  0  0  0  0  0
   -2.1729   -2.0878   -1.8373 C   0  0  0  0  0  0  0  0  0  0  0  0
   -2.5064   -1.6016   -0.5336 O   0  0  0  0  0  0  0  0  0  0  0  0
   -1.6191   -0.8337    0.1705 C   0  0  0  0  0  0  0  0  0  0  0  0
   -0.3569   -0.4542   -0.2805 C   0  0  0  0  0  0  0  0  0  0  0  0
    0.4847    0.3799    0.4973 C   0  0  0  0  0  0  0  0  0  0  0  0
    0.0577    0.7942    1.7628 C   0  0  0  0  0  0  0  0  0  0  0  0
   -1.1950    0.3957    2.2129 C   0  0  0  0  0  0  0  0  0  0  0  0
   -2.0423   -0.4062    1.4395 C   0  0  0  0  0  0  0  0  0  0  0  0
   -3.2968   -0.8132    1.8189 O   0  0  0  0  0  0  0  0  0  0  0  0
   -3.7476   -0.5501    3.1458 C   0  0  0  0  0  0  0  0  0  0  0  0
   -4.4582    0.7979    3.2306 C   0  0  0  0  0  0  0  0  0  0  0  0
   -4.8884    1.0206    4.5733 O   0  0  0  0  0  0  0  0  0  0  0  0
   -5.5639    2.2645    4.7056 C   0  0  0  0  0  0  0  0  0  0  0  0
    0.8037    1.5652    2.5583 N   0  0  0  0  0  0  0  0  0  0  0  0
    2.0022    1.9292    2.0902 C   0  0  0  0  0  0  0  0  0  0  0  0
    2.5141    1.6105    0.8994 N   0  0  0  0  0  0  0  0  0  0  0  0
    1.7538    0.8465    0.0954 C   0  0  0  0  0  0  0  0  0  0  0  0
    2.2264    0.5053   -1.2018 N   0  0  0  0  0  0  0  0  0  0  0  0
    3.5213    0.6597   -1.7453 C   0  0  0  0  0  0  0  0  0  0  0  0
    3.6664    0.7123   -3.1415 C   0  0  0  0  0  0  0  0  0  0  0  0
    4.9281    0.8025   -3.7356 C   0  0  0  0  0  0  0  0  0  0  0  0
    6.0710    0.8161   -2.9398 C   0  0  0  0  0  0  0  0  0  0  0  0
    5.9503    0.7266   -1.5534 C   0  0  0  0  0  0  0  0  0  0  0  0
    4.6837    0.6365   -0.9644 C   0  0  0  0  0  0  0  0  0  0  0  0
    7.1236    0.7161   -0.7337 C   0  0  0  0  0  0  0  0  0  0  0  0
    8.1073    0.7070   -0.0450 C   0  0  0  0  0  0  0  0  0  0  0  0
   -2.6688    1.4348   -3.7259 H   0  0  0  0  0  0  0  0  0  0  0  0
   -0.9654    1.5115   -4.2244 H   0  0  0  0  0  0  0  0  0  0  0  0
   -2.0652    0.3888   -5.0543 H   0  0  0  0  0  0  0  0  0  0  0  0
   -2.7139   -1.6126   -3.8683 H   0  0  0  0  0  0  0  0  0  0  0  0
   -3.4460   -0.5282   -2.6473 H   0  0  0  0  0  0  0  0  0  0  0  0
   -1.1363   -2.4349   -1.9001 H   0  0  0  0  0  0  0  0  0  0  0  0
   -2.8033   -2.9734   -1.9775 H   0  0  0  0  0  0  0  0  0  0  0  0
    0.0051   -0.7913   -1.2447 H   0  0  0  0  0  0  0  0  0  0  0  0
   -1.4919    0.7482    3.1956 H   0  0  0  0  0  0  0  0  0  0  0  0
   -2.9560   -0.6597    3.8965 H   0  0  0  0  0  0  0  0  0  0  0  0
   -4.4713   -1.3360    3.3954 H   0  0  0  0  0  0  0  0  0  0  0  0
   -5.3216    0.8024    2.5543 H   0  0  0  0  0  0  0  0  0  0  0  0
   -3.7902    1.6079    2.9175 H   0  0  0  0  0  0  0  0  0  0  0  0
   -5.8705    2.3806    5.7485 H   0  0  0  0  0  0  0  0  0  0  0  0
   -4.8977    3.0919    4.4430 H   0  0  0  0  0  0  0  0  0  0  0  0
   -6.4574    2.2843    4.0741 H   0  0  0  0  0  0  0  0  0  0  0  0
    2.6158    2.5459    2.7379 H   0  0  0  0  0  0  0  0  0  0  0  0
    1.5066    0.7295   -1.8830 H   0  0  0  0  0  0  0  0  0  0  0  0
    2.7904    0.6868   -3.7851 H   0  0  0  0  0  0  0  0  0  0  0  0
    5.0180    0.8554   -4.8172 H   0  0  0  0  0  0  0  0  0  0  0  0
    7.0514    0.8844   -3.4043 H   0  0  0  0  0  0  0  0  0  0  0  0
    4.6125    0.5392    0.1155 H   0  0  0  0  0  0  0  0  0  0  0  0
    8.9775    0.6988    0.5687 H   0  0  0  0  0  0  0  0  0  0  0  0
  1  2  1  0
  2  3  1  0
  3  4  1  0
  4  5  1  0
  5  6  1  0
  6  7  2  0
  7  8  1  0
  8  9  2  0
  9 10  1  0
 10 11  2  0
 11 12  1  0
 12 13  1  0
 13 14  1  0
 14 15  1  0
 15 16  1  0
  9 17  1  0
 17 18  2  0
 18 19  1  0
 19 20  2  0
 20 21  1  0
 21 22  1  0
 22 23  2  0
 23 24  1  0
 24 25  2  0
 25 26  1  0
 26 27  2  0
 26 28  1  0
 28 29  3  0
 11  6  1  0
 20  8  1  0
 27 22  1  0
  1 30  1  0
  1 31  1  0
  1 32  1  0
  3 33  1  0
  3 34  1  0
  4 35  1  0
  4 36  1  0
  7 37  1  0
 10 38  1  0
 13 39  1  0
 13 40  1  0
 14 41  1  0
 14 42  1  0
 16 43  1  0
 16 44  1  0
 16 45  1  0
 18 46  1  0
 21 47  1  0
 23 48  1  0
 24 49  1  0
 25 50  1  0
 27 51  1  0
 29 52  1  0
M  END
>  <energy_abs>  (24) 
58.6889564813618

>  <SMILES>  (24) 
COCCOc1cc2c(cc1OCCOC)ncnc2Nc3cccc(c3)C#C

>  <cluster_no>  (24) 
24

>  <fda_drugs_id>  (24) 
AAKJLRGGTJKAMG-UHFFFAOYSA-N

>  <initial_conformation_id>  (24) 
281

>  <minimize_method>  (24) 
MMFF

$$$$

     RDKit          3D

 52 54  0  0  0  0  0  0  0  0999 V2000
   -0.5164   -1.5869   -3.9691 C   0  0  0  0  0  0  0  0  0  0  0  0
   -1.8121   -2.0226   -3.5778 O   0  0  0  0  0  0  0  0  0  0  0  0
   -2.0638   -1.8276   -2.1853 C   0  0  0  0  0  0  0  0  0  0  0  0
   -2.6137   -0.4281   -1.9050 C   0  0  0  0  0  0  0  0  0  0  0  0
   -2.8032   -0.2075   -0.5091 O   0  0  0  0  0  0  0  0  0  0  0  0
   -1.7338    0.1373    0.2746 C   0  0  0  0  0  0  0  0  0  0  0  0
   -0.4614    0.4499   -0.2040 C   0  0  0  0  0  0  0  0  0  0  0  0
    0.5932    0.7889    0.6819 C   0  0  0  0  0  0  0  0  0  0  0  0
    0.3582    0.7931    2.0609 C   0  0  0  0  0  0  0  0  0  0  0  0
   -0.9154    0.4915    2.5259 C   0  0  0  0  0  0  0  0  0  0  0  0
   -1.9660    0.1706    1.6586 C   0  0  0  0  0  0  0  0  0  0  0  0
   -3.2415   -0.1353    2.0623 O   0  0  0  0  0  0  0  0  0  0  0  0
   -3.5300   -0.1083    3.4617 C   0  0  0  0  0  0  0  0  0  0  0  0
   -5.0045   -0.4679    3.6744 C   0  0  0  0  0  0  0  0  0  0  0  0
   -5.9076    0.5254    3.1789 O   0  0  0  0  0  0  0  0  0  0  0  0
   -6.0175    1.6656    4.0175 C   0  0  0  0  0  0  0  0  0  0  0  0
    1.3105    1.0750    2.9540 N   0  0  0  0  0  0  0  0  0  0  0  0
    2.5263    1.3513    2.4705 C   0  0  0  0  0  0  0  0  0  0  0  0
    2.8717    1.3875    1.1818 N   0  0  0  0  0  0  0  0  0  0  0  0
    1.9059    1.1181    0.2865 C   0  0  0  0  0  0  0  0  0  0  0  0
    2.2009    1.1941   -1.1034 N   0  0  0  0  0  0  0  0  0  0  0  0
    3.4692    1.2178   -1.7287 C   0  0  0  0  0  0  0  0  0  0  0  0
    3.5827    1.7762   -3.0124 C   0  0  0  0  0  0  0  0  0  0  0  0
    4.7978    1.7605   -3.7023 C   0  0  0  0  0  0  0  0  0  0  0  0
    5.9160    1.1610   -3.1274 C   0  0  0  0  0  0  0  0  0  0  0  0
    5.8138    0.5670   -1.8697 C   0  0  0  0  0  0  0  0  0  0  0  0
    4.5941    0.5851   -1.1837 C   0  0  0  0  0  0  0  0  0  0  0  0
    6.9544   -0.0707   -1.2861 C   0  0  0  0  0  0  0  0  0  0  0  0
    7.9110   -0.6065   -0.7963 C   0  0  0  0  0  0  0  0  0  0  0  0
   -0.4047   -1.7648   -5.0421 H   0  0  0  0  0  0  0  0  0  0  0  0
    0.2541   -2.1564   -3.4407 H   0  0  0  0  0  0  0  0  0  0  0  0
   -0.3891   -0.5174   -3.7802 H   0  0  0  0  0  0  0  0  0  0  0  0
   -1.1676   -2.0496   -1.5944 H   0  0  0  0  0  0  0  0  0  0  0  0
   -2.8142   -2.5661   -1.8804 H   0  0  0  0  0  0  0  0  0  0  0  0
   -3.6025   -0.3526   -2.3742 H   0  0  0  0  0  0  0  0  0  0  0  0
   -2.0322    0.3717   -2.3758 H   0  0  0  0  0  0  0  0  0  0  0  0
   -0.2482    0.4220   -1.2660 H   0  0  0  0  0  0  0  0  0  0  0  0
   -1.0604    0.5113    3.6014 H   0  0  0  0  0  0  0  0  0  0  0  0
   -2.9153   -0.8585    3.9728 H   0  0  0  0  0  0  0  0  0  0  0  0
   -3.3193    0.8872    3.8644 H   0  0  0  0  0  0  0  0  0  0  0  0
   -5.2082   -0.6521    4.7354 H   0  0  0  0  0  0  0  0  0  0  0  0
   -5.2315   -1.3888    3.1264 H   0  0  0  0  0  0  0  0  0  0  0  0
   -6.7877    2.3214    3.6020 H   0  0  0  0  0  0  0  0  0  0  0  0
   -6.3198    1.3751    5.0281 H   0  0  0  0  0  0  0  0  0  0  0  0
   -5.0781    2.2228    4.0493 H   0  0  0  0  0  0  0  0  0  0  0  0
    3.3049    1.5703    3.1933 H   0  0  0  0  0  0  0  0  0  0  0  0
    1.5718    1.8702   -1.5252 H   0  0  0  0  0  0  0  0  0  0  0  0
    2.7222    2.2377   -3.4902 H   0  0  0  0  0  0  0  0  0  0  0  0
    4.8701    2.2107   -4.6890 H   0  0  0  0  0  0  0  0  0  0  0  0
    6.8596    1.1494   -3.6672 H   0  0  0  0  0  0  0  0  0  0  0  0
    4.5276    0.0940   -0.2162 H   0  0  0  0  0  0  0  0  0  0  0  0
    8.7580   -1.0818   -0.3598 H   0  0  0  0  0  0  0  0  0  0  0  0
  1  2  1  0
  2  3  1  0
  3  4  1  0
  4  5  1  0
  5  6  1  0
  6  7  2  0
  7  8  1  0
  8  9  2  0
  9 10  1  0
 10 11  2  0
 11 12  1  0
 12 13  1  0
 13 14  1  0
 14 15  1  0
 15 16  1  0
  9 17  1  0
 17 18  2  0
 18 19  1  0
 19 20  2  0
 20 21  1  0
 21 22  1  0
 22 23  2  0
 23 24  1  0
 24 25  2  0
 25 26  1  0
 26 27  2  0
 26 28  1  0
 28 29  3  0
 11  6  1  0
 20  8  1  0
 27 22  1  0
  1 30  1  0
  1 31  1  0
  1 32  1  0
  3 33  1  0
  3 34  1  0
  4 35  1  0
  4 36  1  0
  7 37  1  0
 10 38  1  0
 13 39  1  0
 13 40  1  0
 14 41  1  0
 14 42  1  0
 16 43  1  0
 16 44  1  0
 16 45  1  0
 18 46  1  0
 21 47  1  0
 23 48  1  0
 24 49  1  0
 25 50  1  0
 27 51  1  0
 29 52  1  0
M  END
>  <energy_abs>  (25) 
63.2711858443244

>  <SMILES>  (25) 
COCCOc1cc2c(cc1OCCOC)ncnc2Nc3cccc(c3)C#C

>  <cluster_no>  (25) 
25

>  <fda_drugs_id>  (25) 
AAKJLRGGTJKAMG-UHFFFAOYSA-N

>  <initial_conformation_id>  (25) 
280

>  <minimize_method>  (25) 
MMFF

$$$$

     RDKit          3D

 52 54  0  0  0  0  0  0  0  0999 V2000
   -2.2389   -3.6515   -3.6699 C   0  0  0  0  0  0  0  0  0  0  0  0
   -3.1414   -2.8547   -2.9170 O   0  0  0  0  0  0  0  0  0  0  0  0
   -2.9430   -1.4478   -3.0914 C   0  0  0  0  0  0  0  0  0  0  0  0
   -1.7903   -0.8995   -2.2437 C   0  0  0  0  0  0  0  0  0  0  0  0
   -2.1696   -0.9421   -0.8643 O   0  0  0  0  0  0  0  0  0  0  0  0
   -1.4051   -0.2121    0.0081 C   0  0  0  0  0  0  0  0  0  0  0  0
   -0.0540    0.0722   -0.1909 C   0  0  0  0  0  0  0  0  0  0  0  0
    0.6827    0.8187    0.7643 C   0  0  0  0  0  0  0  0  0  0  0  0
    0.0373    1.2890    1.9146 C   0  0  0  0  0  0  0  0  0  0  0  0
   -1.3037    0.9817    2.1076 C   0  0  0  0  0  0  0  0  0  0  0  0
   -2.0290    0.2208    1.1850 C   0  0  0  0  0  0  0  0  0  0  0  0
   -3.3593   -0.0826    1.3181 O   0  0  0  0  0  0  0  0  0  0  0  0
   -3.8900   -0.1857    2.6392 C   0  0  0  0  0  0  0  0  0  0  0  0
   -4.7340    1.0445    2.9702 C   0  0  0  0  0  0  0  0  0  0  0  0
   -5.2129    1.0270    4.3152 O   0  0  0  0  0  0  0  0  0  0  0  0
   -6.3492    0.1910    4.4907 C   0  0  0  0  0  0  0  0  0  0  0  0
    0.6586    2.0247    2.8395 N   0  0  0  0  0  0  0  0  0  0  0  0
    1.9473    2.3047    2.6214 C   0  0  0  0  0  0  0  0  0  0  0  0
    2.6735    1.9071    1.5744 N   0  0  0  0  0  0  0  0  0  0  0  0
    2.0479    1.1549    0.6519 C   0  0  0  0  0  0  0  0  0  0  0  0
    2.7834    0.6595   -0.4606 N   0  0  0  0  0  0  0  0  0  0  0  0
    4.0523    1.0730   -0.9279 C   0  0  0  0  0  0  0  0  0  0  0  0
    4.5240    2.3827   -0.7769 C   0  0  0  0  0  0  0  0  0  0  0  0
    5.7523    2.7757   -1.3168 C   0  0  0  0  0  0  0  0  0  0  0  0
    6.5189    1.8667   -2.0423 C   0  0  0  0  0  0  0  0  0  0  0  0
    6.0500    0.5687   -2.2372 C   0  0  0  0  0  0  0  0  0  0  0  0
    4.8198    0.1806   -1.6940 C   0  0  0  0  0  0  0  0  0  0  0  0
    6.8216   -0.3649   -2.9993 C   0  0  0  0  0  0  0  0  0  0  0  0
    7.4695   -1.1480   -3.6389 C   0  0  0  0  0  0  0  0  0  0  0  0
   -2.4944   -4.7023   -3.5082 H   0  0  0  0  0  0  0  0  0  0  0  0
   -1.2078   -3.4959   -3.3427 H   0  0  0  0  0  0  0  0  0  0  0  0
   -2.3326   -3.4336   -4.7381 H   0  0  0  0  0  0  0  0  0  0  0  0
   -3.8770   -0.9644   -2.7848 H   0  0  0  0  0  0  0  0  0  0  0  0
   -2.7833   -1.2258   -4.1526 H   0  0  0  0  0  0  0  0  0  0  0  0
   -0.8897   -1.5033   -2.3893 H   0  0  0  0  0  0  0  0  0  0  0  0
   -1.6000    0.1375   -2.5460 H   0  0  0  0  0  0  0  0  0  0  0  0
    0.4497   -0.2756   -1.0865 H   0  0  0  0  0  0  0  0  0  0  0  0
   -1.7777    1.3741    3.0028 H   0  0  0  0  0  0  0  0  0  0  0  0
   -3.1290   -0.3814    3.4047 H   0  0  0  0  0  0  0  0  0  0  0  0
   -4.5313   -1.0743    2.6463 H   0  0  0  0  0  0  0  0  0  0  0  0
   -4.1237    1.9471    2.8592 H   0  0  0  0  0  0  0  0  0  0  0  0
   -5.5637    1.1567    2.2614 H   0  0  0  0  0  0  0  0  0  0  0  0
   -6.6827    0.2822    5.5281 H   0  0  0  0  0  0  0  0  0  0  0  0
   -6.0974   -0.8560    4.3025 H   0  0  0  0  0  0  0  0  0  0  0  0
   -7.1659    0.5081    3.8352 H   0  0  0  0  0  0  0  0  0  0  0  0
    2.4517    2.9091    3.3674 H   0  0  0  0  0  0  0  0  0  0  0  0
    2.6983   -0.3521   -0.4751 H   0  0  0  0  0  0  0  0  0  0  0  0
    3.9358    3.1208   -0.2377 H   0  0  0  0  0  0  0  0  0  0  0  0
    6.1033    3.7945   -1.1745 H   0  0  0  0  0  0  0  0  0  0  0  0
    7.4723    2.1792   -2.4606 H   0  0  0  0  0  0  0  0  0  0  0  0
    4.4635   -0.8313   -1.8694 H   0  0  0  0  0  0  0  0  0  0  0  0
    8.0470   -1.8407   -4.2056 H   0  0  0  0  0  0  0  0  0  0  0  0
  1  2  1  0
  2  3  1  0
  3  4  1  0
  4  5  1  0
  5  6  1  0
  6  7  2  0
  7  8  1  0
  8  9  2  0
  9 10  1  0
 10 11  2  0
 11 12  1  0
 12 13  1  0
 13 14  1  0
 14 15  1  0
 15 16  1  0
  9 17  1  0
 17 18  2  0
 18 19  1  0
 19 20  2  0
 20 21  1  0
 21 22  1  0
 22 23  2  0
 23 24  1  0
 24 25  2  0
 25 26  1  0
 26 27  2  0
 26 28  1  0
 28 29  3  0
 11  6  1  0
 20  8  1  0
 27 22  1  0
  1 30  1  0
  1 31  1  0
  1 32  1  0
  3 33  1  0
  3 34  1  0
  4 35  1  0
  4 36  1  0
  7 37  1  0
 10 38  1  0
 13 39  1  0
 13 40  1  0
 14 41  1  0
 14 42  1  0
 16 43  1  0
 16 44  1  0
 16 45  1  0
 18 46  1  0
 21 47  1  0
 23 48  1  0
 24 49  1  0
 25 50  1  0
 27 51  1  0
 29 52  1  0
M  END
>  <energy_abs>  (26) 
63.1241893488977

>  <SMILES>  (26) 
COCCOc1cc2c(cc1OCCOC)ncnc2Nc3cccc(c3)C#C

>  <cluster_no>  (26) 
26

>  <fda_drugs_id>  (26) 
AAKJLRGGTJKAMG-UHFFFAOYSA-N

>  <initial_conformation_id>  (26) 
279

>  <minimize_method>  (26) 
MMFF

$$$$

     RDKit          3D

 52 54  0  0  0  0  0  0  0  0999 V2000
   -1.9009   -4.3127   -2.8084 C   0  0  0  0  0  0  0  0  0  0  0  0
   -2.3462   -3.0998   -3.4017 O   0  0  0  0  0  0  0  0  0  0  0  0
   -2.8857   -2.1825   -2.4490 C   0  0  0  0  0  0  0  0  0  0  0  0
   -1.7933   -1.3448   -1.7855 C   0  0  0  0  0  0  0  0  0  0  0  0
   -2.4114   -0.4328   -0.8805 O   0  0  0  0  0  0  0  0  0  0  0  0
   -1.5970    0.2986   -0.0556 C   0  0  0  0  0  0  0  0  0  0  0  0
   -0.2248    0.4653   -0.2487 C   0  0  0  0  0  0  0  0  0  0  0  0
    0.5485    1.2514    0.6434 C   0  0  0  0  0  0  0  0  0  0  0  0
   -0.0753    1.8541    1.7419 C   0  0  0  0  0  0  0  0  0  0  0  0
   -1.4438    1.6889    1.9153 C   0  0  0  0  0  0  0  0  0  0  0  0
   -2.2188    0.9311    1.0319 C   0  0  0  0  0  0  0  0  0  0  0  0
   -3.5677    0.7195    1.1555 O   0  0  0  0  0  0  0  0  0  0  0  0
   -4.3165    1.4618    2.1225 C   0  0  0  0  0  0  0  0  0  0  0  0
   -4.3561    0.7444    3.4733 C   0  0  0  0  0  0  0  0  0  0  0  0
   -5.2125   -0.3992    3.3848 O   0  0  0  0  0  0  0  0  0  0  0  0
   -5.2359   -1.1341    4.6006 C   0  0  0  0  0  0  0  0  0  0  0  0
    0.5902    2.5860    2.6388 N   0  0  0  0  0  0  0  0  0  0  0  0
    1.9062    2.7215    2.4467 C   0  0  0  0  0  0  0  0  0  0  0  0
    2.6125    2.2050    1.4391 N   0  0  0  0  0  0  0  0  0  0  0  0
    1.9359    1.4802    0.5304 C   0  0  0  0  0  0  0  0  0  0  0  0
    2.6284    0.9424   -0.5893 N   0  0  0  0  0  0  0  0  0  0  0  0
    4.0231    0.8073   -0.7795 C   0  0  0  0  0  0  0  0  0  0  0  0
    4.9177    0.6217    0.2815 C   0  0  0  0  0  0  0  0  0  0  0  0
    6.2818    0.4200    0.0506 C   0  0  0  0  0  0  0  0  0  0  0  0
    6.7699    0.3742   -1.2533 C   0  0  0  0  0  0  0  0  0  0  0  0
    5.8906    0.5182   -2.3251 C   0  0  0  0  0  0  0  0  0  0  0  0
    4.5261    0.7204   -2.0880 C   0  0  0  0  0  0  0  0  0  0  0  0
    6.3811    0.4521   -3.6678 C   0  0  0  0  0  0  0  0  0  0  0  0
    6.7926    0.3967   -4.7946 C   0  0  0  0  0  0  0  0  0  0  0  0
   -1.0896   -4.1279   -2.0992 H   0  0  0  0  0  0  0  0  0  0  0  0
   -1.5233   -4.9628   -3.6023 H   0  0  0  0  0  0  0  0  0  0  0  0
   -2.7305   -4.8221   -2.3088 H   0  0  0  0  0  0  0  0  0  0  0  0
   -3.5658   -1.5136   -2.9889 H   0  0  0  0  0  0  0  0  0  0  0  0
   -3.5002   -2.7018   -1.7032 H   0  0  0  0  0  0  0  0  0  0  0  0
   -1.2427   -0.8011   -2.5625 H   0  0  0  0  0  0  0  0  0  0  0  0
   -1.0948   -2.0001   -1.2525 H   0  0  0  0  0  0  0  0  0  0  0  0
    0.2725   -0.0139   -1.0854 H   0  0  0  0  0  0  0  0  0  0  0  0
   -1.8848    2.1698    2.7819 H   0  0  0  0  0  0  0  0  0  0  0  0
   -5.3358    1.5322    1.7254 H   0  0  0  0  0  0  0  0  0  0  0  0
   -3.9481    2.4893    2.2139 H   0  0  0  0  0  0  0  0  0  0  0  0
   -3.3550    0.4178    3.7731 H   0  0  0  0  0  0  0  0  0  0  0  0
   -4.7607    1.4233    4.2320 H   0  0  0  0  0  0  0  0  0  0  0  0
   -5.9127   -1.9837    4.4767 H   0  0  0  0  0  0  0  0  0  0  0  0
   -5.6052   -0.5091    5.4193 H   0  0  0  0  0  0  0  0  0  0  0  0
   -4.2376   -1.5147    4.8373 H   0  0  0  0  0  0  0  0  0  0  0  0
    2.4518    3.3094    3.1769 H   0  0  0  0  0  0  0  0  0  0  0  0
    2.1716    1.2637   -1.4370 H   0  0  0  0  0  0  0  0  0  0  0  0
    4.5621    0.6261    1.3086 H   0  0  0  0  0  0  0  0  0  0  0  0
    6.9586    0.2916    0.8912 H   0  0  0  0  0  0  0  0  0  0  0  0
    7.8313    0.2156   -1.4259 H   0  0  0  0  0  0  0  0  0  0  0  0
    3.8535    0.8146   -2.9369 H   0  0  0  0  0  0  0  0  0  0  0  0
    7.1591    0.3474   -5.7935 H   0  0  0  0  0  0  0  0  0  0  0  0
  1  2  1  0
  2  3  1  0
  3  4  1  0
  4  5  1  0
  5  6  1  0
  6  7  2  0
  7  8  1  0
  8  9  2  0
  9 10  1  0
 10 11  2  0
 11 12  1  0
 12 13  1  0
 13 14  1  0
 14 15  1  0
 15 16  1  0
  9 17  1  0
 17 18  2  0
 18 19  1  0
 19 20  2  0
 20 21  1  0
 21 22  1  0
 22 23  2  0
 23 24  1  0
 24 25  2  0
 25 26  1  0
 26 27  2  0
 26 28  1  0
 28 29  3  0
 11  6  1  0
 20  8  1  0
 27 22  1  0
  1 30  1  0
  1 31  1  0
  1 32  1  0
  3 33  1  0
  3 34  1  0
  4 35  1  0
  4 36  1  0
  7 37  1  0
 10 38  1  0
 13 39  1  0
 13 40  1  0
 14 41  1  0
 14 42  1  0
 16 43  1  0
 16 44  1  0
 16 45  1  0
 18 46  1  0
 21 47  1  0
 23 48  1  0
 24 49  1  0
 25 50  1  0
 27 51  1  0
 29 52  1  0
M  END
>  <energy_abs>  (27) 
61.2109952359987

>  <SMILES>  (27) 
COCCOc1cc2c(cc1OCCOC)ncnc2Nc3cccc(c3)C#C

>  <cluster_no>  (27) 
27

>  <fda_drugs_id>  (27) 
AAKJLRGGTJKAMG-UHFFFAOYSA-N

>  <initial_conformation_id>  (27) 
278

>  <minimize_method>  (27) 
MMFF

$$$$

     RDKit          3D

 52 54  0  0  0  0  0  0  0  0999 V2000
   -4.2692   -2.0051   -1.7475 C   0  0  0  0  0  0  0  0  0  0  0  0
   -3.4136   -2.9061   -2.4394 O   0  0  0  0  0  0  0  0  0  0  0  0
   -2.4386   -3.5282   -1.5946 C   0  0  0  0  0  0  0  0  0  0  0  0
   -1.3526   -2.5613   -1.1133 C   0  0  0  0  0  0  0  0  0  0  0  0
   -1.8366   -1.8598    0.0365 O   0  0  0  0  0  0  0  0  0  0  0  0
   -1.1283   -0.7595    0.4439 C   0  0  0  0  0  0  0  0  0  0  0  0
    0.2198   -0.5450    0.1560 C   0  0  0  0  0  0  0  0  0  0  0  0
    0.8909    0.6117    0.6293 C   0  0  0  0  0  0  0  0  0  0  0  0
    0.1833    1.5550    1.3844 C   0  0  0  0  0  0  0  0  0  0  0  0
   -1.1547    1.3195    1.6760 C   0  0  0  0  0  0  0  0  0  0  0  0
   -1.8213    0.1753    1.2261 C   0  0  0  0  0  0  0  0  0  0  0  0
   -3.1399   -0.1105    1.4757 O   0  0  0  0  0  0  0  0  0  0  0  0
   -3.8755    0.7952    2.2961 C   0  0  0  0  0  0  0  0  0  0  0  0
   -5.2897    0.2430    2.4731 C   0  0  0  0  0  0  0  0  0  0  0  0
   -6.0877    1.0671    3.3228 O   0  0  0  0  0  0  0  0  0  0  0  0
   -6.6603    2.1764    2.6432 C   0  0  0  0  0  0  0  0  0  0  0  0
    0.7412    2.6783    1.8423 N   0  0  0  0  0  0  0  0  0  0  0  0
    2.0285    2.8771    1.5416 C   0  0  0  0  0  0  0  0  0  0  0  0
    2.8096    2.0522    0.8415 N   0  0  0  0  0  0  0  0  0  0  0  0
    2.2478    0.9157    0.3937 C   0  0  0  0  0  0  0  0  0  0  0  0
    3.0464   -0.0232   -0.3164 N   0  0  0  0  0  0  0  0  0  0  0  0
    4.3207    0.1758   -0.8972 C   0  0  0  0  0  0  0  0  0  0  0  0
    5.1579   -0.9341   -1.0957 C   0  0  0  0  0  0  0  0  0  0  0  0
    6.3983   -0.8003   -1.7253 C   0  0  0  0  0  0  0  0  0  0  0  0
    6.8106    0.4458   -2.1913 C   0  0  0  0  0  0  0  0  0  0  0  0
    5.9769    1.5531   -2.0379 C   0  0  0  0  0  0  0  0  0  0  0  0
    4.7357    1.4131   -1.4065 C   0  0  0  0  0  0  0  0  0  0  0  0
    6.3873    2.8305   -2.5357 C   0  0  0  0  0  0  0  0  0  0  0  0
    6.7320    3.9029   -2.9520 C   0  0  0  0  0  0  0  0  0  0  0  0
   -4.6732   -2.4607   -0.8385 H   0  0  0  0  0  0  0  0  0  0  0  0
   -5.1033   -1.7553   -2.4093 H   0  0  0  0  0  0  0  0  0  0  0  0
   -3.7407   -1.0780   -1.5117 H   0  0  0  0  0  0  0  0  0  0  0  0
   -1.9671   -4.3033   -2.2078 H   0  0  0  0  0  0  0  0  0  0  0  0
   -2.9428   -4.0229   -0.7564 H   0  0  0  0  0  0  0  0  0  0  0  0
   -0.4721   -3.1430   -0.8188 H   0  0  0  0  0  0  0  0  0  0  0  0
   -1.1004   -1.8591   -1.9169 H   0  0  0  0  0  0  0  0  0  0  0  0
    0.7718   -1.2630   -0.4414 H   0  0  0  0  0  0  0  0  0  0  0  0
   -1.6654    2.0708    2.2706 H   0  0  0  0  0  0  0  0  0  0  0  0
   -3.4069    0.8971    3.2827 H   0  0  0  0  0  0  0  0  0  0  0  0
   -3.9199    1.7815    1.8209 H   0  0  0  0  0  0  0  0  0  0  0  0
   -5.7800    0.0852    1.5045 H   0  0  0  0  0  0  0  0  0  0  0  0
   -5.2268   -0.7451    2.9435 H   0  0  0  0  0  0  0  0  0  0  0  0
   -7.2810    2.7288    3.3539 H   0  0  0  0  0  0  0  0  0  0  0  0
   -5.8849    2.8496    2.2684 H   0  0  0  0  0  0  0  0  0  0  0  0
   -7.2958    1.8362    1.8200 H   0  0  0  0  0  0  0  0  0  0  0  0
    2.4826    3.7930    1.9039 H   0  0  0  0  0  0  0  0  0  0  0  0
    2.9979   -0.9151    0.1653 H   0  0  0  0  0  0  0  0  0  0  0  0
    4.8540   -1.9206   -0.7551 H   0  0  0  0  0  0  0  0  0  0  0  0
    7.0388   -1.6683   -1.8568 H   0  0  0  0  0  0  0  0  0  0  0  0
    7.7755    0.5465   -2.6819 H   0  0  0  0  0  0  0  0  0  0  0  0
    4.0886    2.2820   -1.3200 H   0  0  0  0  0  0  0  0  0  0  0  0
    7.0359    4.8551   -3.3195 H   0  0  0  0  0  0  0  0  0  0  0  0
  1  2  1  0
  2  3  1  0
  3  4  1  0
  4  5  1  0
  5  6  1  0
  6  7  2  0
  7  8  1  0
  8  9  2  0
  9 10  1  0
 10 11  2  0
 11 12  1  0
 12 13  1  0
 13 14  1  0
 14 15  1  0
 15 16  1  0
  9 17  1  0
 17 18  2  0
 18 19  1  0
 19 20  2  0
 20 21  1  0
 21 22  1  0
 22 23  2  0
 23 24  1  0
 24 25  2  0
 25 26  1  0
 26 27  2  0
 26 28  1  0
 28 29  3  0
 11  6  1  0
 20  8  1  0
 27 22  1  0
  1 30  1  0
  1 31  1  0
  1 32  1  0
  3 33  1  0
  3 34  1  0
  4 35  1  0
  4 36  1  0
  7 37  1  0
 10 38  1  0
 13 39  1  0
 13 40  1  0
 14 41  1  0
 14 42  1  0
 16 43  1  0
 16 44  1  0
 16 45  1  0
 18 46  1  0
 21 47  1  0
 23 48  1  0
 24 49  1  0
 25 50  1  0
 27 51  1  0
 29 52  1  0
M  END
>  <energy_abs>  (28) 
58.46288658526219

>  <SMILES>  (28) 
COCCOc1cc2c(cc1OCCOC)ncnc2Nc3cccc(c3)C#C

>  <cluster_no>  (28) 
28

>  <fda_drugs_id>  (28) 
AAKJLRGGTJKAMG-UHFFFAOYSA-N

>  <initial_conformation_id>  (28) 
277

>  <minimize_method>  (28) 
MMFF

$$$$

     RDKit          3D

 52 54  0  0  0  0  0  0  0  0999 V2000
   -4.1470   -2.6963   -2.4567 C   0  0  0  0  0  0  0  0  0  0  0  0
   -3.0491   -3.3586   -1.8450 O   0  0  0  0  0  0  0  0  0  0  0  0
   -3.1805   -3.4813   -0.4231 C   0  0  0  0  0  0  0  0  0  0  0  0
   -2.8948   -2.1772    0.3303 C   0  0  0  0  0  0  0  0  0  0  0  0
   -1.5049   -1.8681    0.2046 O   0  0  0  0  0  0  0  0  0  0  0  0
   -1.0950   -0.5972    0.5080 C   0  0  0  0  0  0  0  0  0  0  0  0
    0.1338   -0.2718   -0.0758 C   0  0  0  0  0  0  0  0  0  0  0  0
    0.7318    0.9969    0.1116 C   0  0  0  0  0  0  0  0  0  0  0  0
    0.0810    1.9396    0.9121 C   0  0  0  0  0  0  0  0  0  0  0  0
   -1.1303    1.5985    1.5036 C   0  0  0  0  0  0  0  0  0  0  0  0
   -1.7285    0.3415    1.3315 C   0  0  0  0  0  0  0  0  0  0  0  0
   -2.8930   -0.0278    1.9446 O   0  0  0  0  0  0  0  0  0  0  0  0
   -3.4843    0.8585    2.8993 C   0  0  0  0  0  0  0  0  0  0  0  0
   -4.6935    0.1555    3.5243 C   0  0  0  0  0  0  0  0  0  0  0  0
   -5.7321   -0.1150    2.5750 O   0  0  0  0  0  0  0  0  0  0  0  0
   -6.5240    1.0238    2.2678 C   0  0  0  0  0  0  0  0  0  0  0  0
    0.5784    3.1567    1.1457 N   0  0  0  0  0  0  0  0  0  0  0  0
    1.7581    3.4400    0.5842 C   0  0  0  0  0  0  0  0  0  0  0  0
    2.4767    2.6264   -0.1916 N   0  0  0  0  0  0  0  0  0  0  0  0
    1.9634    1.4075   -0.4371 C   0  0  0  0  0  0  0  0  0  0  0  0
    2.6755    0.5087   -1.2756 N   0  0  0  0  0  0  0  0  0  0  0  0
    4.0259    0.5794   -1.6870 C   0  0  0  0  0  0  0  0  0  0  0  0
    4.4103   -0.0485   -2.8822 C   0  0  0  0  0  0  0  0  0  0  0  0
    5.7448   -0.0535   -3.2993 C   0  0  0  0  0  0  0  0  0  0  0  0
    6.7231    0.5485   -2.5098 C   0  0  0  0  0  0  0  0  0  0  0  0
    6.3666    1.1450   -1.3007 C   0  0  0  0  0  0  0  0  0  0  0  0
    5.0281    1.1506   -0.8913 C   0  0  0  0  0  0  0  0  0  0  0  0
    7.3700    1.7388   -0.4705 C   0  0  0  0  0  0  0  0  0  0  0  0
    8.2084    2.2340    0.2326 C   0  0  0  0  0  0  0  0  0  0  0  0
   -5.0906   -3.1773   -2.1845 H   0  0  0  0  0  0  0  0  0  0  0  0
   -4.1661   -1.6401   -2.1810 H   0  0  0  0  0  0  0  0  0  0  0  0
   -4.0232   -2.7647   -3.5420 H   0  0  0  0  0  0  0  0  0  0  0  0
   -2.4549   -4.2399   -0.1138 H   0  0  0  0  0  0  0  0  0  0  0  0
   -4.1805   -3.8571   -0.1763 H   0  0  0  0  0  0  0  0  0  0  0  0
   -3.1280   -2.3456    1.3880 H   0  0  0  0  0  0  0  0  0  0  0  0
   -3.5077   -1.3701   -0.0775 H   0  0  0  0  0  0  0  0  0  0  0  0
    0.6324   -1.0301   -0.6773 H   0  0  0  0  0  0  0  0  0  0  0  0
   -1.5957    2.3609    2.1212 H   0  0  0  0  0  0  0  0  0  0  0  0
   -3.7925    1.7824    2.4009 H   0  0  0  0  0  0  0  0  0  0  0  0
   -2.7651    1.0812    3.6970 H   0  0  0  0  0  0  0  0  0  0  0  0
   -5.0945    0.7378    4.3622 H   0  0  0  0  0  0  0  0  0  0  0  0
   -4.3779   -0.8190    3.9147 H   0  0  0  0  0  0  0  0  0  0  0  0
   -7.3316    0.7090    1.5987 H   0  0  0  0  0  0  0  0  0  0  0  0
   -5.9341    1.7884    1.7558 H   0  0  0  0  0  0  0  0  0  0  0  0
   -6.9702    1.4370    3.1761 H   0  0  0  0  0  0  0  0  0  0  0  0
    2.1712    4.4240    0.7770 H   0  0  0  0  0  0  0  0  0  0  0  0
    2.0665    0.1971   -2.0246 H   0  0  0  0  0  0  0  0  0  0  0  0
    3.6687   -0.5377   -3.5100 H   0  0  0  0  0  0  0  0  0  0  0  0
    6.0204   -0.5334   -4.2348 H   0  0  0  0  0  0  0  0  0  0  0  0
    7.7604    0.5400   -2.8355 H   0  0  0  0  0  0  0  0  0  0  0  0
    4.7719    1.5981    0.0657 H   0  0  0  0  0  0  0  0  0  0  0  0
    8.9499    2.6729    0.8584 H   0  0  0  0  0  0  0  0  0  0  0  0
  1  2  1  0
  2  3  1  0
  3  4  1  0
  4  5  1  0
  5  6  1  0
  6  7  2  0
  7  8  1  0
  8  9  2  0
  9 10  1  0
 10 11  2  0
 11 12  1  0
 12 13  1  0
 13 14  1  0
 14 15  1  0
 15 16  1  0
  9 17  1  0
 17 18  2  0
 18 19  1  0
 19 20  2  0
 20 21  1  0
 21 22  1  0
 22 23  2  0
 23 24  1  0
 24 25  2  0
 25 26  1  0
 26 27  2  0
 26 28  1  0
 28 29  3  0
 11  6  1  0
 20  8  1  0
 27 22  1  0
  1 30  1  0
  1 31  1  0
  1 32  1  0
  3 33  1  0
  3 34  1  0
  4 35  1  0
  4 36  1  0
  7 37  1  0
 10 38  1  0
 13 39  1  0
 13 40  1  0
 14 41  1  0
 14 42  1  0
 16 43  1  0
 16 44  1  0
 16 45  1  0
 18 46  1  0
 21 47  1  0
 23 48  1  0
 24 49  1  0
 25 50  1  0
 27 51  1  0
 29 52  1  0
M  END
>  <energy_abs>  (29) 
60.158992422162704

>  <SMILES>  (29) 
COCCOc1cc2c(cc1OCCOC)ncnc2Nc3cccc(c3)C#C

>  <cluster_no>  (29) 
29

>  <fda_drugs_id>  (29) 
AAKJLRGGTJKAMG-UHFFFAOYSA-N

>  <initial_conformation_id>  (29) 
276

>  <minimize_method>  (29) 
MMFF

$$$$

     RDKit          3D

 52 54  0  0  0  0  0  0  0  0999 V2000
   -2.7208   -4.9712   -1.4043 C   0  0  0  0  0  0  0  0  0  0  0  0
   -2.9043   -3.8851   -2.3029 O   0  0  0  0  0  0  0  0  0  0  0  0
   -3.2292   -2.6645   -1.6368 C   0  0  0  0  0  0  0  0  0  0  0  0
   -1.9744   -1.9159   -1.1907 C   0  0  0  0  0  0  0  0  0  0  0  0
   -2.3724   -0.6972   -0.5593 O   0  0  0  0  0  0  0  0  0  0  0  0
   -1.4104   -0.1067    0.2146 C   0  0  0  0  0  0  0  0  0  0  0  0
   -0.0639   -0.0458   -0.1369 C   0  0  0  0  0  0  0  0  0  0  0  0
    0.8799    0.6028    0.7044 C   0  0  0  0  0  0  0  0  0  0  0  0
    0.4468    1.2094    1.8931 C   0  0  0  0  0  0  0  0  0  0  0  0
   -0.8993    1.1487    2.2230 C   0  0  0  0  0  0  0  0  0  0  0  0
   -1.8234    0.5201    1.3885 C   0  0  0  0  0  0  0  0  0  0  0  0
   -3.1382    0.4433    1.7696 O   0  0  0  0  0  0  0  0  0  0  0  0
   -3.8105    1.6901    1.5232 C   0  0  0  0  0  0  0  0  0  0  0  0
   -5.3168    1.4655    1.6534 C   0  0  0  0  0  0  0  0  0  0  0  0
   -5.6636    1.3393    3.0368 O   0  0  0  0  0  0  0  0  0  0  0  0
   -7.0490    1.0713    3.2068 C   0  0  0  0  0  0  0  0  0  0  0  0
    1.2755    1.8490    2.7210 N   0  0  0  0  0  0  0  0  0  0  0  0
    2.5612    1.9040    2.3601 C   0  0  0  0  0  0  0  0  0  0  0  0
    3.0958    1.3663    1.2608 N   0  0  0  0  0  0  0  0  0  0  0  0
    2.2611    0.7074    0.4382 C   0  0  0  0  0  0  0  0  0  0  0  0
    2.7829    0.0756   -0.7241 N   0  0  0  0  0  0  0  0  0  0  0  0
    4.0401    0.2718   -1.3407 C   0  0  0  0  0  0  0  0  0  0  0  0
    4.5640   -0.7465   -2.1530 C   0  0  0  0  0  0  0  0  0  0  0  0
    5.7654   -0.5733   -2.8457 C   0  0  0  0  0  0  0  0  0  0  0  0
    6.4520    0.6343   -2.7547 C   0  0  0  0  0  0  0  0  0  0  0  0
    5.9310    1.6706   -1.9805 C   0  0  0  0  0  0  0  0  0  0  0  0
    4.7271    1.4916   -1.2902 C   0  0  0  0  0  0  0  0  0  0  0  0
    6.6200    2.9231   -1.9055 C   0  0  0  0  0  0  0  0  0  0  0  0
    7.1921    3.9765   -1.8388 C   0  0  0  0  0  0  0  0  0  0  0  0
   -2.4568   -5.8574   -1.9880 H   0  0  0  0  0  0  0  0  0  0  0  0
   -1.9096   -4.7668   -0.6995 H   0  0  0  0  0  0  0  0  0  0  0  0
   -3.6483   -5.1769   -0.8614 H   0  0  0  0  0  0  0  0  0  0  0  0
   -3.9116   -2.8402   -0.7957 H   0  0  0  0  0  0  0  0  0  0  0  0
   -3.7808   -2.0401   -2.3488 H   0  0  0  0  0  0  0  0  0  0  0  0
   -1.3547   -1.7053   -2.0703 H   0  0  0  0  0  0  0  0  0  0  0  0
   -1.3945   -2.5403   -0.5012 H   0  0  0  0  0  0  0  0  0  0  0  0
    0.2676   -0.4666   -1.0812 H   0  0  0  0  0  0  0  0  0  0  0  0
   -1.2366    1.5989    3.1533 H   0  0  0  0  0  0  0  0  0  0  0  0
   -3.5880    2.0445    0.5086 H   0  0  0  0  0  0  0  0  0  0  0  0
   -3.4777    2.4314    2.2589 H   0  0  0  0  0  0  0  0  0  0  0  0
   -5.8540    2.3237    1.2356 H   0  0  0  0  0  0  0  0  0  0  0  0
   -5.6083    0.5526    1.1222 H   0  0  0  0  0  0  0  0  0  0  0  0
   -7.3184    0.1299    2.7197 H   0  0  0  0  0  0  0  0  0  0  0  0
   -7.6505    1.8912    2.8035 H   0  0  0  0  0  0  0  0  0  0  0  0
   -7.2542    0.9805    4.2773 H   0  0  0  0  0  0  0  0  0  0  0  0
    3.2358    2.4339    3.0242 H   0  0  0  0  0  0  0  0  0  0  0  0
    2.5351   -0.9075   -0.6980 H   0  0  0  0  0  0  0  0  0  0  0  0
    4.0393   -1.6928   -2.2561 H   0  0  0  0  0  0  0  0  0  0  0  0
    6.1574   -1.3776   -3.4638 H   0  0  0  0  0  0  0  0  0  0  0  0
    7.3839    0.7672   -3.2982 H   0  0  0  0  0  0  0  0  0  0  0  0
    4.3213    2.3208   -0.7174 H   0  0  0  0  0  0  0  0  0  0  0  0
    7.6977    4.9121   -1.7754 H   0  0  0  0  0  0  0  0  0  0  0  0
  1  2  1  0
  2  3  1  0
  3  4  1  0
  4  5  1  0
  5  6  1  0
  6  7  2  0
  7  8  1  0
  8  9  2  0
  9 10  1  0
 10 11  2  0
 11 12  1  0
 12 13  1  0
 13 14  1  0
 14 15  1  0
 15 16  1  0
  9 17  1  0
 17 18  2  0
 18 19  1  0
 19 20  2  0
 20 21  1  0
 21 22  1  0
 22 23  2  0
 23 24  1  0
 24 25  2  0
 25 26  1  0
 26 27  2  0
 26 28  1  0
 28 29  3  0
 11  6  1  0
 20  8  1  0
 27 22  1  0
  1 30  1  0
  1 31  1  0
  1 32  1  0
  3 33  1  0
  3 34  1  0
  4 35  1  0
  4 36  1  0
  7 37  1  0
 10 38  1  0
 13 39  1  0
 13 40  1  0
 14 41  1  0
 14 42  1  0
 16 43  1  0
 16 44  1  0
 16 45  1  0
 18 46  1  0
 21 47  1  0
 23 48  1  0
 24 49  1  0
 25 50  1  0
 27 51  1  0
 29 52  1  0
M  END
>  <energy_abs>  (30) 
59.34952833889858

>  <SMILES>  (30) 
COCCOc1cc2c(cc1OCCOC)ncnc2Nc3cccc(c3)C#C

>  <cluster_no>  (30) 
30

>  <fda_drugs_id>  (30) 
AAKJLRGGTJKAMG-UHFFFAOYSA-N

>  <initial_conformation_id>  (30) 
275

>  <minimize_method>  (30) 
MMFF

$$$$

     RDKit          3D

 52 54  0  0  0  0  0  0  0  0999 V2000
   -2.9447   -4.1607   -3.9419 C   0  0  0  0  0  0  0  0  0  0  0  0
   -2.0075   -3.2861   -3.3269 O   0  0  0  0  0  0  0  0  0  0  0  0
   -2.6029   -2.5504   -2.2589 C   0  0  0  0  0  0  0  0  0  0  0  0
   -1.5525   -1.6467   -1.6209 C   0  0  0  0  0  0  0  0  0  0  0  0
   -2.1637   -0.9206   -0.5573 O   0  0  0  0  0  0  0  0  0  0  0  0
   -1.3652   -0.1186    0.2159 C   0  0  0  0  0  0  0  0  0  0  0  0
   -0.0278    0.1720   -0.0582 C   0  0  0  0  0  0  0  0  0  0  0  0
    0.7269    1.0205    0.7929 C   0  0  0  0  0  0  0  0  0  0  0  0
    0.1224    1.5588    1.9343 C   0  0  0  0  0  0  0  0  0  0  0  0
   -1.2107    1.2666    2.1926 C   0  0  0  0  0  0  0  0  0  0  0  0
   -1.9665    0.4426    1.3522 C   0  0  0  0  0  0  0  0  0  0  0  0
   -3.2860    0.1235    1.5542 O   0  0  0  0  0  0  0  0  0  0  0  0
   -3.9265    0.6377    2.7205 C   0  0  0  0  0  0  0  0  0  0  0  0
   -5.3681    0.1298    2.7421 C   0  0  0  0  0  0  0  0  0  0  0  0
   -6.0717    0.5557    3.9093 O   0  0  0  0  0  0  0  0  0  0  0  0
   -6.5877    1.8752    3.7974 C   0  0  0  0  0  0  0  0  0  0  0  0
    0.7735    2.3478    2.7922 N   0  0  0  0  0  0  0  0  0  0  0  0
    2.0570    2.6032    2.5202 C   0  0  0  0  0  0  0  0  0  0  0  0
    2.7421    2.1566    1.4663 N   0  0  0  0  0  0  0  0  0  0  0  0
    2.0781    1.3754    0.5962 C   0  0  0  0  0  0  0  0  0  0  0  0
    2.7451    0.9074   -0.5688 N   0  0  0  0  0  0  0  0  0  0  0  0
    4.1320    0.8977   -0.8450 C   0  0  0  0  0  0  0  0  0  0  0  0
    5.1023    0.7852    0.1581 C   0  0  0  0  0  0  0  0  0  0  0  0
    6.4623    0.7068   -0.1574 C   0  0  0  0  0  0  0  0  0  0  0  0
    6.8721    0.7117   -1.4894 C   0  0  0  0  0  0  0  0  0  0  0  0
    5.9201    0.7845   -2.5045 C   0  0  0  0  0  0  0  0  0  0  0  0
    4.5602    0.8652   -2.1828 C   0  0  0  0  0  0  0  0  0  0  0  0
    6.3309    0.7656   -3.8762 C   0  0  0  0  0  0  0  0  0  0  0  0
    6.6752    0.7482   -5.0269 C   0  0  0  0  0  0  0  0  0  0  0  0
   -3.3162   -4.8938   -3.2193 H   0  0  0  0  0  0  0  0  0  0  0  0
   -3.7782   -3.5920   -4.3661 H   0  0  0  0  0  0  0  0  0  0  0  0
   -2.4382   -4.6937   -4.7512 H   0  0  0  0  0  0  0  0  0  0  0  0
   -3.4333   -1.9448   -2.6397 H   0  0  0  0  0  0  0  0  0  0  0  0
   -3.0077   -3.2384   -1.5073 H   0  0  0  0  0  0  0  0  0  0  0  0
   -1.1626   -0.9591   -2.3811 H   0  0  0  0  0  0  0  0  0  0  0  0
   -0.7278   -2.2660   -1.2472 H   0  0  0  0  0  0  0  0  0  0  0  0
    0.4613   -0.2600   -0.9246 H   0  0  0  0  0  0  0  0  0  0  0  0
   -1.6437    1.7079    3.0848 H   0  0  0  0  0  0  0  0  0  0  0  0
   -3.4145    0.2951    3.6285 H   0  0  0  0  0  0  0  0  0  0  0  0
   -3.9211    1.7335    2.7017 H   0  0  0  0  0  0  0  0  0  0  0  0
   -5.3572   -0.9669    2.7500 H   0  0  0  0  0  0  0  0  0  0  0  0
   -5.9067    0.4198    1.8307 H   0  0  0  0  0  0  0  0  0  0  0  0
   -5.7811    2.6035    3.6896 H   0  0  0  0  0  0  0  0  0  0  0  0
   -7.2771    1.9470    2.9517 H   0  0  0  0  0  0  0  0  0  0  0  0
   -7.1386    2.1064    4.7131 H   0  0  0  0  0  0  0  0  0  0  0  0
    2.5917    3.2359    3.2200 H   0  0  0  0  0  0  0  0  0  0  0  0
    2.2092    1.1866   -1.3842 H   0  0  0  0  0  0  0  0  0  0  0  0
    4.8106    0.7506    1.2050 H   0  0  0  0  0  0  0  0  0  0  0  0
    7.1972    0.6349    0.6391 H   0  0  0  0  0  0  0  0  0  0  0  0
    7.9308    0.6474   -1.7281 H   0  0  0  0  0  0  0  0  0  0  0  0
    3.8313    0.9069   -2.9887 H   0  0  0  0  0  0  0  0  0  0  0  0
    6.9811    0.7303   -6.0475 H   0  0  0  0  0  0  0  0  0  0  0  0
  1  2  1  0
  2  3  1  0
  3  4  1  0
  4  5  1  0
  5  6  1  0
  6  7  2  0
  7  8  1  0
  8  9  2  0
  9 10  1  0
 10 11  2  0
 11 12  1  0
 12 13  1  0
 13 14  1  0
 14 15  1  0
 15 16  1  0
  9 17  1  0
 17 18  2  0
 18 19  1  0
 19 20  2  0
 20 21  1  0
 21 22  1  0
 22 23  2  0
 23 24  1  0
 24 25  2  0
 25 26  1  0
 26 27  2  0
 26 28  1  0
 28 29  3  0
 11  6  1  0
 20  8  1  0
 27 22  1  0
  1 30  1  0
  1 31  1  0
  1 32  1  0
  3 33  1  0
  3 34  1  0
  4 35  1  0
  4 36  1  0
  7 37  1  0
 10 38  1  0
 13 39  1  0
 13 40  1  0
 14 41  1  0
 14 42  1  0
 16 43  1  0
 16 44  1  0
 16 45  1  0
 18 46  1  0
 21 47  1  0
 23 48  1  0
 24 49  1  0
 25 50  1  0
 27 51  1  0
 29 52  1  0
M  END
>  <energy_abs>  (31) 
56.566165036863694

>  <SMILES>  (31) 
COCCOc1cc2c(cc1OCCOC)ncnc2Nc3cccc(c3)C#C

>  <cluster_no>  (31) 
31

>  <fda_drugs_id>  (31) 
AAKJLRGGTJKAMG-UHFFFAOYSA-N

>  <initial_conformation_id>  (31) 
274

>  <minimize_method>  (31) 
MMFF

$$$$

     RDKit          3D

 52 54  0  0  0  0  0  0  0  0999 V2000
   -2.6216   -4.5419   -2.3507 C   0  0  0  0  0  0  0  0  0  0  0  0
   -3.3729   -3.5637   -1.6456 O   0  0  0  0  0  0  0  0  0  0  0  0
   -3.2132   -2.2395   -2.1692 C   0  0  0  0  0  0  0  0  0  0  0  0
   -1.9694   -1.5385   -1.6137 C   0  0  0  0  0  0  0  0  0  0  0  0
   -2.1932   -1.2208   -0.2324 O   0  0  0  0  0  0  0  0  0  0  0  0
   -1.3991   -0.2140    0.2549 C   0  0  0  0  0  0  0  0  0  0  0  0
   -0.0249   -0.1684    0.0174 C   0  0  0  0  0  0  0  0  0  0  0  0
    0.7703    0.8702    0.5628 C   0  0  0  0  0  0  0  0  0  0  0  0
    0.1619    1.8596    1.3467 C   0  0  0  0  0  0  0  0  0  0  0  0
   -1.2046    1.7839    1.5906 C   0  0  0  0  0  0  0  0  0  0  0  0
   -1.9971    0.7561    1.0682 C   0  0  0  0  0  0  0  0  0  0  0  0
   -3.3472    0.6301    1.2693 O   0  0  0  0  0  0  0  0  0  0  0  0
   -3.9791    1.5542    2.1587 C   0  0  0  0  0  0  0  0  0  0  0  0
   -5.4610    1.1878    2.2953 C   0  0  0  0  0  0  0  0  0  0  0  0
   -5.6847   -0.0428    2.9900 O   0  0  0  0  0  0  0  0  0  0  0  0
   -5.4952    0.0502    4.3939 C   0  0  0  0  0  0  0  0  0  0  0  0
    0.8416    2.8795    1.8779 N   0  0  0  0  0  0  0  0  0  0  0  0
    2.1535    2.9243    1.6246 C   0  0  0  0  0  0  0  0  0  0  0  0
    2.8465    2.0424    0.9003 N   0  0  0  0  0  0  0  0  0  0  0  0
    2.1609    1.0104    0.3765 C   0  0  0  0  0  0  0  0  0  0  0  0
    2.8559    0.0191   -0.3728 N   0  0  0  0  0  0  0  0  0  0  0  0
    4.1673    0.0856   -0.8989 C   0  0  0  0  0  0  0  0  0  0  0  0
    4.8663   -1.1093   -1.1372 C   0  0  0  0  0  0  0  0  0  0  0  0
    6.1415   -1.0977   -1.7100 C   0  0  0  0  0  0  0  0  0  0  0  0
    6.7268    0.1117   -2.0820 C   0  0  0  0  0  0  0  0  0  0  0  0
    6.0301    1.3052   -1.8944 C   0  0  0  0  0  0  0  0  0  0  0  0
    4.7549    1.2880   -1.3169 C   0  0  0  0  0  0  0  0  0  0  0  0
    6.6114    2.5458   -2.3095 C   0  0  0  0  0  0  0  0  0  0  0  0
    7.0932    3.5870   -2.6645 C   0  0  0  0  0  0  0  0  0  0  0  0
   -1.5499   -4.3322   -2.2983 H   0  0  0  0  0  0  0  0  0  0  0  0
   -2.9437   -4.5915   -3.3958 H   0  0  0  0  0  0  0  0  0  0  0  0
   -2.8072   -5.5153   -1.8848 H   0  0  0  0  0  0  0  0  0  0  0  0
   -4.1099   -1.6770   -1.8797 H   0  0  0  0  0  0  0  0  0  0  0  0
   -3.1775   -2.2756   -3.2659 H   0  0  0  0  0  0  0  0  0  0  0  0
   -1.8001   -0.6209   -2.1933 H   0  0  0  0  0  0  0  0  0  0  0  0
   -1.0943   -2.1934   -1.6921 H   0  0  0  0  0  0  0  0  0  0  0  0
    0.4407   -0.9404   -0.5868 H   0  0  0  0  0  0  0  0  0  0  0  0
   -1.6349    2.5674    2.2066 H   0  0  0  0  0  0  0  0  0  0  0  0
   -3.9121    2.5637    1.7360 H   0  0  0  0  0  0  0  0  0  0  0  0
   -3.4883    1.5246    3.1369 H   0  0  0  0  0  0  0  0  0  0  0  0
   -5.8928    1.0594    1.2964 H   0  0  0  0  0  0  0  0  0  0  0  0
   -6.0120    1.9930    2.7953 H   0  0  0  0  0  0  0  0  0  0  0  0
   -4.4434    0.2231    4.6379 H   0  0  0  0  0  0  0  0  0  0  0  0
   -6.1180    0.8440    4.8189 H   0  0  0  0  0  0  0  0  0  0  0  0
   -5.7944   -0.9007    4.8427 H   0  0  0  0  0  0  0  0  0  0  0  0
    2.7085    3.7536    2.0509 H   0  0  0  0  0  0  0  0  0  0  0  0
    2.6752   -0.8860    0.0497 H   0  0  0  0  0  0  0  0  0  0  0  0
    4.4248   -2.0678   -0.8728 H   0  0  0  0  0  0  0  0  0  0  0  0
    6.6740   -2.0314   -1.8709 H   0  0  0  0  0  0  0  0  0  0  0  0
    7.7174    0.1161   -2.5305 H   0  0  0  0  0  0  0  0  0  0  0  0
    4.2166    2.2256   -1.2032 H   0  0  0  0  0  0  0  0  0  0  0  0
    7.5195    4.5126   -2.9755 H   0  0  0  0  0  0  0  0  0  0  0  0
  1  2  1  0
  2  3  1  0
  3  4  1  0
  4  5  1  0
  5  6  1  0
  6  7  2  0
  7  8  1  0
  8  9  2  0
  9 10  1  0
 10 11  2  0
 11 12  1  0
 12 13  1  0
 13 14  1  0
 14 15  1  0
 15 16  1  0
  9 17  1  0
 17 18  2  0
 18 19  1  0
 19 20  2  0
 20 21  1  0
 21 22  1  0
 22 23  2  0
 23 24  1  0
 24 25  2  0
 25 26  1  0
 26 27  2  0
 26 28  1  0
 28 29  3  0
 11  6  1  0
 20  8  1  0
 27 22  1  0
  1 30  1  0
  1 31  1  0
  1 32  1  0
  3 33  1  0
  3 34  1  0
  4 35  1  0
  4 36  1  0
  7 37  1  0
 10 38  1  0
 13 39  1  0
 13 40  1  0
 14 41  1  0
 14 42  1  0
 16 43  1  0
 16 44  1  0
 16 45  1  0
 18 46  1  0
 21 47  1  0
 23 48  1  0
 24 49  1  0
 25 50  1  0
 27 51  1  0
 29 52  1  0
M  END
>  <energy_abs>  (32) 
64.54954287636212

>  <SMILES>  (32) 
COCCOc1cc2c(cc1OCCOC)ncnc2Nc3cccc(c3)C#C

>  <cluster_no>  (32) 
32

>  <fda_drugs_id>  (32) 
AAKJLRGGTJKAMG-UHFFFAOYSA-N

>  <initial_conformation_id>  (32) 
273

>  <minimize_method>  (32) 
MMFF

$$$$

     RDKit          3D

 52 54  0  0  0  0  0  0  0  0999 V2000
   -0.1392   -2.2358   -4.0504 C   0  0  0  0  0  0  0  0  0  0  0  0
   -0.8019   -1.4966   -3.0308 O   0  0  0  0  0  0  0  0  0  0  0  0
   -2.0625   -2.0896   -2.6931 C   0  0  0  0  0  0  0  0  0  0  0  0
   -2.6638   -1.3676   -1.4843 C   0  0  0  0  0  0  0  0  0  0  0  0
   -1.9471   -1.7682   -0.3004 O   0  0  0  0  0  0  0  0  0  0  0  0
   -1.4301   -0.6762    0.3421 C   0  0  0  0  0  0  0  0  0  0  0  0
   -0.1132   -0.3226    0.0638 C   0  0  0  0  0  0  0  0  0  0  0  0
    0.4786    0.7924    0.6989 C   0  0  0  0  0  0  0  0  0  0  0  0
   -0.2631    1.5121    1.6477 C   0  0  0  0  0  0  0  0  0  0  0  0
   -1.5706    1.1206    1.9265 C   0  0  0  0  0  0  0  0  0  0  0  0
   -2.1660    0.0257    1.2943 C   0  0  0  0  0  0  0  0  0  0  0  0
   -3.4594   -0.3705    1.5019 O   0  0  0  0  0  0  0  0  0  0  0  0
   -3.9481   -0.2601    2.8410 C   0  0  0  0  0  0  0  0  0  0  0  0
   -4.9792    0.8602    2.9372 C   0  0  0  0  0  0  0  0  0  0  0  0
   -5.4361    0.9679    4.2851 O   0  0  0  0  0  0  0  0  0  0  0  0
   -6.4127    1.9905    4.4277 C   0  0  0  0  0  0  0  0  0  0  0  0
    0.2347    2.5672    2.2968 N   0  0  0  0  0  0  0  0  0  0  0  0
    1.4937    2.9127    2.0043 C   0  0  0  0  0  0  0  0  0  0  0  0
    2.2934    2.3140    1.1175 N   0  0  0  0  0  0  0  0  0  0  0  0
    1.7852    1.2620    0.4520 C   0  0  0  0  0  0  0  0  0  0  0  0
    2.5690    0.6069   -0.5389 N   0  0  0  0  0  0  0  0  0  0  0  0
    3.9442    0.7459   -0.8293 C   0  0  0  0  0  0  0  0  0  0  0  0
    4.8934    1.1278    0.1260 C   0  0  0  0  0  0  0  0  0  0  0  0
    6.2544    1.1821   -0.1861 C   0  0  0  0  0  0  0  0  0  0  0  0
    6.6934    0.8298   -1.4593 C   0  0  0  0  0  0  0  0  0  0  0  0
    5.7700    0.4114   -2.4157 C   0  0  0  0  0  0  0  0  0  0  0  0
    4.4076    0.3590   -2.0957 C   0  0  0  0  0  0  0  0  0  0  0  0
    6.2133    0.0325   -3.7239 C   0  0  0  0  0  0  0  0  0  0  0  0
    6.5812   -0.2790   -4.8252 C   0  0  0  0  0  0  0  0  0  0  0  0
    0.1139   -3.2408   -3.6874 H   0  0  0  0  0  0  0  0  0  0  0  0
   -0.7618   -2.3030   -4.9479 H   0  0  0  0  0  0  0  0  0  0  0  0
    0.7883   -1.7183   -4.3045 H   0  0  0  0  0  0  0  0  0  0  0  0
   -2.7331   -1.9890   -3.5530 H   0  0  0  0  0  0  0  0  0  0  0  0
   -1.9155   -3.1517   -2.4624 H   0  0  0  0  0  0  0  0  0  0  0  0
   -2.6461   -0.2794   -1.6473 H   0  0  0  0  0  0  0  0  0  0  0  0
   -3.7057   -1.6798   -1.3479 H   0  0  0  0  0  0  0  0  0  0  0  0
    0.4423   -0.9210   -0.6535 H   0  0  0  0  0  0  0  0  0  0  0  0
   -2.1248    1.7117    2.6499 H   0  0  0  0  0  0  0  0  0  0  0  0
   -3.1547   -0.1499    3.5915 H   0  0  0  0  0  0  0  0  0  0  0  0
   -4.4384   -1.2108    3.0846 H   0  0  0  0  0  0  0  0  0  0  0  0
   -4.5385    1.8118    2.6169 H   0  0  0  0  0  0  0  0  0  0  0  0
   -5.8232    0.6446    2.2697 H   0  0  0  0  0  0  0  0  0  0  0  0
   -6.7232    2.0275    5.4759 H   0  0  0  0  0  0  0  0  0  0  0  0
   -7.2902    1.7695    3.8122 H   0  0  0  0  0  0  0  0  0  0  0  0
   -5.9920    2.9625    4.1527 H   0  0  0  0  0  0  0  0  0  0  0  0
    1.9046    3.7632    2.5362 H   0  0  0  0  0  0  0  0  0  0  0  0
    2.0181    0.5208   -1.3878 H   0  0  0  0  0  0  0  0  0  0  0  0
    4.5866    1.3794    1.1354 H   0  0  0  0  0  0  0  0  0  0  0  0
    6.9700    1.4925    0.5708 H   0  0  0  0  0  0  0  0  0  0  0  0
    7.7537    0.8729   -1.6947 H   0  0  0  0  0  0  0  0  0  0  0  0
    3.7025    0.0131   -2.8482 H   0  0  0  0  0  0  0  0  0  0  0  0
    6.9078   -0.5550   -5.8014 H   0  0  0  0  0  0  0  0  0  0  0  0
  1  2  1  0
  2  3  1  0
  3  4  1  0
  4  5  1  0
  5  6  1  0
  6  7  2  0
  7  8  1  0
  8  9  2  0
  9 10  1  0
 10 11  2  0
 11 12  1  0
 12 13  1  0
 13 14  1  0
 14 15  1  0
 15 16  1  0
  9 17  1  0
 17 18  2  0
 18 19  1  0
 19 20  2  0
 20 21  1  0
 21 22  1  0
 22 23  2  0
 23 24  1  0
 24 25  2  0
 25 26  1  0
 26 27  2  0
 26 28  1  0
 28 29  3  0
 11  6  1  0
 20  8  1  0
 27 22  1  0
  1 30  1  0
  1 31  1  0
  1 32  1  0
  3 33  1  0
  3 34  1  0
  4 35  1  0
  4 36  1  0
  7 37  1  0
 10 38  1  0
 13 39  1  0
 13 40  1  0
 14 41  1  0
 14 42  1  0
 16 43  1  0
 16 44  1  0
 16 45  1  0
 18 46  1  0
 21 47  1  0
 23 48  1  0
 24 49  1  0
 25 50  1  0
 27 51  1  0
 29 52  1  0
M  END
>  <energy_abs>  (33) 
57.70383577461453

>  <SMILES>  (33) 
COCCOc1cc2c(cc1OCCOC)ncnc2Nc3cccc(c3)C#C

>  <cluster_no>  (33) 
33

>  <fda_drugs_id>  (33) 
AAKJLRGGTJKAMG-UHFFFAOYSA-N

>  <initial_conformation_id>  (33) 
272

>  <minimize_method>  (33) 
MMFF

$$$$

     RDKit          3D

 52 54  0  0  0  0  0  0  0  0999 V2000
   -1.1015   -4.7492   -2.6142 C   0  0  0  0  0  0  0  0  0  0  0  0
   -1.4423   -3.3809   -2.7976 O   0  0  0  0  0  0  0  0  0  0  0  0
   -1.8451   -2.7715   -1.5715 C   0  0  0  0  0  0  0  0  0  0  0  0
   -2.2716   -1.3305   -1.8402 C   0  0  0  0  0  0  0  0  0  0  0  0
   -2.6071   -0.6558   -0.6300 O   0  0  0  0  0  0  0  0  0  0  0  0
   -1.6206   -0.0539    0.1066 C   0  0  0  0  0  0  0  0  0  0  0  0
   -0.2662   -0.0342   -0.2294 C   0  0  0  0  0  0  0  0  0  0  0  0
    0.6877    0.6110    0.6011 C   0  0  0  0  0  0  0  0  0  0  0  0
    0.2581    1.2531    1.7681 C   0  0  0  0  0  0  0  0  0  0  0  0
   -1.0917    1.2258    2.0935 C   0  0  0  0  0  0  0  0  0  0  0  0
   -2.0368    0.5834    1.2862 C   0  0  0  0  0  0  0  0  0  0  0  0
   -3.3799    0.5194    1.5618 O   0  0  0  0  0  0  0  0  0  0  0  0
   -3.8591    1.2088    2.7144 C   0  0  0  0  0  0  0  0  0  0  0  0
   -5.3735    1.0388    2.7832 C   0  0  0  0  0  0  0  0  0  0  0  0
   -5.8744    1.7132    3.9371 O   0  0  0  0  0  0  0  0  0  0  0  0
   -7.2870    1.5895    4.0401 C   0  0  0  0  0  0  0  0  0  0  0  0
    1.0935    1.8945    2.5889 N   0  0  0  0  0  0  0  0  0  0  0  0
    2.3842    1.9105    2.2424 C   0  0  0  0  0  0  0  0  0  0  0  0
    2.9162    1.3336    1.1632 N   0  0  0  0  0  0  0  0  0  0  0  0
    2.0740    0.6773    0.3460 C   0  0  0  0  0  0  0  0  0  0  0  0
    2.5920    0.0130   -0.7996 N   0  0  0  0  0  0  0  0  0  0  0  0
    3.8636    0.1578   -1.4011 C   0  0  0  0  0  0  0  0  0  0  0  0
    4.3617   -0.8890   -2.1941 C   0  0  0  0  0  0  0  0  0  0  0  0
    5.5828   -0.7713   -2.8636 C   0  0  0  0  0  0  0  0  0  0  0  0
    6.3151    0.4098   -2.7711 C   0  0  0  0  0  0  0  0  0  0  0  0
    5.8190    1.4749   -2.0202 C   0  0  0  0  0  0  0  0  0  0  0  0
    4.5954    1.3512   -1.3520 C   0  0  0  0  0  0  0  0  0  0  0  0
    6.5570    2.6988   -1.9424 C   0  0  0  0  0  0  0  0  0  0  0  0
    7.1753    3.7261   -1.8765 C   0  0  0  0  0  0  0  0  0  0  0  0
   -0.2667   -4.8451   -1.9131 H   0  0  0  0  0  0  0  0  0  0  0  0
   -1.9658   -5.3138   -2.2517 H   0  0  0  0  0  0  0  0  0  0  0  0
   -0.7958   -5.1601   -3.5801 H   0  0  0  0  0  0  0  0  0  0  0  0
   -2.6826   -3.3253   -1.1299 H   0  0  0  0  0  0  0  0  0  0  0  0
   -1.0147   -2.8051   -0.8577 H   0  0  0  0  0  0  0  0  0  0  0  0
   -3.1810   -1.3517   -2.4536 H   0  0  0  0  0  0  0  0  0  0  0  0
   -1.5467   -0.7778   -2.4490 H   0  0  0  0  0  0  0  0  0  0  0  0
    0.0831   -0.5011   -1.1438 H   0  0  0  0  0  0  0  0  0  0  0  0
   -1.3847    1.7296    3.0098 H   0  0  0  0  0  0  0  0  0  0  0  0
   -3.6218    2.2783    2.6554 H   0  0  0  0  0  0  0  0  0  0  0  0
   -3.4101    0.7957    3.6260 H   0  0  0  0  0  0  0  0  0  0  0  0
   -5.8351    1.4500    1.8772 H   0  0  0  0  0  0  0  0  0  0  0  0
   -5.6265   -0.0273    2.8325 H   0  0  0  0  0  0  0  0  0  0  0  0
   -7.7753    2.0387    3.1700 H   0  0  0  0  0  0  0  0  0  0  0  0
   -7.6145    2.1211    4.9376 H   0  0  0  0  0  0  0  0  0  0  0  0
   -7.5737    0.5375    4.1327 H   0  0  0  0  0  0  0  0  0  0  0  0
    3.0641    2.4392    2.9016 H   0  0  0  0  0  0  0  0  0  0  0  0
    2.3079   -0.9603   -0.7695 H   0  0  0  0  0  0  0  0  0  0  0  0
    3.8020   -1.8151   -2.2973 H   0  0  0  0  0  0  0  0  0  0  0  0
    5.9576   -1.5975   -3.4618 H   0  0  0  0  0  0  0  0  0  0  0  0
    7.2636    0.4992   -3.2947 H   0  0  0  0  0  0  0  0  0  0  0  0
    4.2129    2.2024   -0.7949 H   0  0  0  0  0  0  0  0  0  0  0  0
    7.7213    4.6384   -1.8162 H   0  0  0  0  0  0  0  0  0  0  0  0
  1  2  1  0
  2  3  1  0
  3  4  1  0
  4  5  1  0
  5  6  1  0
  6  7  2  0
  7  8  1  0
  8  9  2  0
  9 10  1  0
 10 11  2  0
 11 12  1  0
 12 13  1  0
 13 14  1  0
 14 15  1  0
 15 16  1  0
  9 17  1  0
 17 18  2  0
 18 19  1  0
 19 20  2  0
 20 21  1  0
 21 22  1  0
 22 23  2  0
 23 24  1  0
 24 25  2  0
 25 26  1  0
 26 27  2  0
 26 28  1  0
 28 29  3  0
 11  6  1  0
 20  8  1  0
 27 22  1  0
  1 30  1  0
  1 31  1  0
  1 32  1  0
  3 33  1  0
  3 34  1  0
  4 35  1  0
  4 36  1  0
  7 37  1  0
 10 38  1  0
 13 39  1  0
 13 40  1  0
 14 41  1  0
 14 42  1  0
 16 43  1  0
 16 44  1  0
 16 45  1  0
 18 46  1  0
 21 47  1  0
 23 48  1  0
 24 49  1  0
 25 50  1  0
 27 51  1  0
 29 52  1  0
M  END
>  <energy_abs>  (34) 
57.05422703398942

>  <SMILES>  (34) 
COCCOc1cc2c(cc1OCCOC)ncnc2Nc3cccc(c3)C#C

>  <cluster_no>  (34) 
34

>  <fda_drugs_id>  (34) 
AAKJLRGGTJKAMG-UHFFFAOYSA-N

>  <initial_conformation_id>  (34) 
271

>  <minimize_method>  (34) 
MMFF

$$$$

     RDKit          3D

 52 54  0  0  0  0  0  0  0  0999 V2000
   -2.4285   -4.7090   -3.1033 C   0  0  0  0  0  0  0  0  0  0  0  0
   -2.8444   -3.6364   -2.2687 O   0  0  0  0  0  0  0  0  0  0  0  0
   -2.1351   -2.4286   -2.5682 C   0  0  0  0  0  0  0  0  0  0  0  0
   -2.4518   -1.3575   -1.5196 C   0  0  0  0  0  0  0  0  0  0  0  0
   -1.6521   -1.6088   -0.3493 O   0  0  0  0  0  0  0  0  0  0  0  0
   -1.2387   -0.4372    0.2237 C   0  0  0  0  0  0  0  0  0  0  0  0
    0.1027   -0.1017    0.0593 C   0  0  0  0  0  0  0  0  0  0  0  0
    0.6072    1.1013    0.6027 C   0  0  0  0  0  0  0  0  0  0  0  0
   -0.2549    1.9396    1.3306 C   0  0  0  0  0  0  0  0  0  0  0  0
   -1.5845    1.5608    1.5110 C   0  0  0  0  0  0  0  0  0  0  0  0
   -2.0977    0.3774    0.9707 C   0  0  0  0  0  0  0  0  0  0  0  0
   -3.3872   -0.0586    1.0928 O   0  0  0  0  0  0  0  0  0  0  0  0
   -4.2826    0.6242    1.9664 C   0  0  0  0  0  0  0  0  0  0  0  0
   -4.1143    0.1572    3.4134 C   0  0  0  0  0  0  0  0  0  0  0  0
   -4.9753    0.8559    4.3123 O   0  0  0  0  0  0  0  0  0  0  0  0
   -6.3077    0.3619    4.3121 C   0  0  0  0  0  0  0  0  0  0  0  0
    0.1469    3.1004    1.8542 N   0  0  0  0  0  0  0  0  0  0  0  0
    1.4218    3.4449    1.6422 C   0  0  0  0  0  0  0  0  0  0  0  0
    2.3308    2.7404    0.9588 N   0  0  0  0  0  0  0  0  0  0  0  0
    1.9300    1.5634    0.4470 C   0  0  0  0  0  0  0  0  0  0  0  0
    2.8513    0.7653   -0.2836 N   0  0  0  0  0  0  0  0  0  0  0  0
    4.0774    1.1333   -0.8785 C   0  0  0  0  0  0  0  0  0  0  0  0
    4.3677    2.4467   -1.2773 C   0  0  0  0  0  0  0  0  0  0  0  0
    5.5581    2.7562   -1.9436 C   0  0  0  0  0  0  0  0  0  0  0  0
    6.4677    1.7457   -2.2503 C   0  0  0  0  0  0  0  0  0  0  0  0
    6.1821    0.4257   -1.8968 C   0  0  0  0  0  0  0  0  0  0  0  0
    4.9924    0.1235   -1.2219 C   0  0  0  0  0  0  0  0  0  0  0  0
    7.0909   -0.6250   -2.2473 C   0  0  0  0  0  0  0  0  0  0  0  0
    7.8469   -1.5064   -2.5595 C   0  0  0  0  0  0  0  0  0  0  0  0
   -2.5903   -4.4661   -4.1639 H   0  0  0  0  0  0  0  0  0  0  0  0
   -1.3691   -4.9389   -2.9206 H   0  0  0  0  0  0  0  0  0  0  0  0
   -3.0240   -5.5919   -2.8495 H   0  0  0  0  0  0  0  0  0  0  0  0
   -1.0608   -2.6338   -2.5738 H   0  0  0  0  0  0  0  0  0  0  0  0
   -2.4491   -2.0801   -3.5604 H   0  0  0  0  0  0  0  0  0  0  0  0
   -3.5097   -1.3950   -1.2385 H   0  0  0  0  0  0  0  0  0  0  0  0
   -2.2193   -0.3749   -1.9495 H   0  0  0  0  0  0  0  0  0  0  0  0
    0.7383   -0.7648   -0.5273 H   0  0  0  0  0  0  0  0  0  0  0  0
   -2.2095    2.2412    2.0871 H   0  0  0  0  0  0  0  0  0  0  0  0
   -4.2307    1.7156    1.8674 H   0  0  0  0  0  0  0  0  0  0  0  0
   -5.2920    0.3676    1.6266 H   0  0  0  0  0  0  0  0  0  0  0  0
   -4.2617   -0.9272    3.4948 H   0  0  0  0  0  0  0  0  0  0  0  0
   -3.0887    0.3469    3.7438 H   0  0  0  0  0  0  0  0  0  0  0  0
   -6.3247   -0.7061    4.5455 H   0  0  0  0  0  0  0  0  0  0  0  0
   -6.7894    0.5471    3.3490 H   0  0  0  0  0  0  0  0  0  0  0  0
   -6.8705    0.8934    5.0838 H   0  0  0  0  0  0  0  0  0  0  0  0
    1.7489    4.3850    2.0662 H   0  0  0  0  0  0  0  0  0  0  0  0
    2.8738   -0.1768    0.1013 H   0  0  0  0  0  0  0  0  0  0  0  0
    3.6632    3.2519   -1.0836 H   0  0  0  0  0  0  0  0  0  0  0  0
    5.7639    3.7842   -2.2344 H   0  0  0  0  0  0  0  0  0  0  0  0
    7.3883    1.9908   -2.7736 H   0  0  0  0  0  0  0  0  0  0  0  0
    4.7813   -0.9138   -0.9657 H   0  0  0  0  0  0  0  0  0  0  0  0
    8.5162   -2.2866   -2.8454 H   0  0  0  0  0  0  0  0  0  0  0  0
  1  2  1  0
  2  3  1  0
  3  4  1  0
  4  5  1  0
  5  6  1  0
  6  7  2  0
  7  8  1  0
  8  9  2  0
  9 10  1  0
 10 11  2  0
 11 12  1  0
 12 13  1  0
 13 14  1  0
 14 15  1  0
 15 16  1  0
  9 17  1  0
 17 18  2  0
 18 19  1  0
 19 20  2  0
 20 21  1  0
 21 22  1  0
 22 23  2  0
 23 24  1  0
 24 25  2  0
 25 26  1  0
 26 27  2  0
 26 28  1  0
 28 29  3  0
 11  6  1  0
 20  8  1  0
 27 22  1  0
  1 30  1  0
  1 31  1  0
  1 32  1  0
  3 33  1  0
  3 34  1  0
  4 35  1  0
  4 36  1  0
  7 37  1  0
 10 38  1  0
 13 39  1  0
 13 40  1  0
 14 41  1  0
 14 42  1  0
 16 43  1  0
 16 44  1  0
 16 45  1  0
 18 46  1  0
 21 47  1  0
 23 48  1  0
 24 49  1  0
 25 50  1  0
 27 51  1  0
 29 52  1  0
M  END
>  <energy_abs>  (35) 
61.305380809395054

>  <SMILES>  (35) 
COCCOc1cc2c(cc1OCCOC)ncnc2Nc3cccc(c3)C#C

>  <cluster_no>  (35) 
35

>  <fda_drugs_id>  (35) 
AAKJLRGGTJKAMG-UHFFFAOYSA-N

>  <initial_conformation_id>  (35) 
270

>  <minimize_method>  (35) 
MMFF

$$$$

     RDKit          3D

 52 54  0  0  0  0  0  0  0  0999 V2000
   -2.3573   -4.5804   -2.2791 C   0  0  0  0  0  0  0  0  0  0  0  0
   -3.4586   -3.6860   -2.3720 O   0  0  0  0  0  0  0  0  0  0  0  0
   -3.0591   -2.3227   -2.5133 C   0  0  0  0  0  0  0  0  0  0  0  0
   -2.7143   -1.6766   -1.1718 C   0  0  0  0  0  0  0  0  0  0  0  0
   -2.3371   -0.3131   -1.4108 O   0  0  0  0  0  0  0  0  0  0  0  0
   -1.5610    0.1832   -0.3953 C   0  0  0  0  0  0  0  0  0  0  0  0
   -0.2530    0.5268   -0.7307 C   0  0  0  0  0  0  0  0  0  0  0  0
    0.6254    1.0561    0.2434 C   0  0  0  0  0  0  0  0  0  0  0  0
    0.1646    1.2321    1.5548 C   0  0  0  0  0  0  0  0  0  0  0  0
   -1.1557    0.9122    1.8575 C   0  0  0  0  0  0  0  0  0  0  0  0
   -2.0401    0.4138    0.8963 C   0  0  0  0  0  0  0  0  0  0  0  0
   -3.3483    0.0998    1.1407 O   0  0  0  0  0  0  0  0  0  0  0  0
   -4.0178    0.7950    2.1938 C   0  0  0  0  0  0  0  0  0  0  0  0
   -4.1656   -0.1061    3.4186 C   0  0  0  0  0  0  0  0  0  0  0  0
   -4.7663    0.5744    4.5197 O   0  0  0  0  0  0  0  0  0  0  0  0
   -6.1804    0.6717    4.4115 C   0  0  0  0  0  0  0  0  0  0  0  0
    0.9433    1.6990    2.5330 N   0  0  0  0  0  0  0  0  0  0  0  0
    2.2067    1.9938    2.2093 C   0  0  0  0  0  0  0  0  0  0  0  0
    2.7580    1.8746    1.0000 N   0  0  0  0  0  0  0  0  0  0  0  0
    1.9678    1.4179    0.0130 C   0  0  0  0  0  0  0  0  0  0  0  0
    2.4882    1.3176   -1.3066 N   0  0  0  0  0  0  0  0  0  0  0  0
    3.8419    1.3693   -1.7141 C   0  0  0  0  0  0  0  0  0  0  0  0
    4.1459    1.7816   -3.0211 C   0  0  0  0  0  0  0  0  0  0  0  0
    5.4643    1.7953   -3.4863 C   0  0  0  0  0  0  0  0  0  0  0  0
    6.4993    1.3711   -2.6562 C   0  0  0  0  0  0  0  0  0  0  0  0
    6.2125    0.9187   -1.3691 C   0  0  0  0  0  0  0  0  0  0  0  0
    4.8906    0.9058   -0.9092 C   0  0  0  0  0  0  0  0  0  0  0  0
    7.2700    0.4584   -0.5206 C   0  0  0  0  0  0  0  0  0  0  0  0
    8.1547    0.0709    0.1938 C   0  0  0  0  0  0  0  0  0  0  0  0
   -1.7293   -4.5088   -3.1723 H   0  0  0  0  0  0  0  0  0  0  0  0
   -2.7472   -5.5993   -2.2132 H   0  0  0  0  0  0  0  0  0  0  0  0
   -1.7644   -4.3813   -1.3832 H   0  0  0  0  0  0  0  0  0  0  0  0
   -3.9010   -1.7803   -2.9594 H   0  0  0  0  0  0  0  0  0  0  0  0
   -2.2297   -2.2301   -3.2248 H   0  0  0  0  0  0  0  0  0  0  0  0
   -1.9044   -2.2332   -0.6836 H   0  0  0  0  0  0  0  0  0  0  0  0
   -3.5951   -1.7219   -0.5214 H   0  0  0  0  0  0  0  0  0  0  0  0
    0.0863    0.3530   -1.7492 H   0  0  0  0  0  0  0  0  0  0  0  0
   -1.4729    1.0558    2.8864 H   0  0  0  0  0  0  0  0  0  0  0  0
   -3.5589    1.7591    2.4450 H   0  0  0  0  0  0  0  0  0  0  0  0
   -5.0118    1.0494    1.8104 H   0  0  0  0  0  0  0  0  0  0  0  0
   -4.7204   -1.0195    3.1732 H   0  0  0  0  0  0  0  0  0  0  0  0
   -3.1754   -0.4381    3.7468 H   0  0  0  0  0  0  0  0  0  0  0  0
   -6.4652    1.2809    3.5506 H   0  0  0  0  0  0  0  0  0  0  0  0
   -6.5581    1.1592    5.3143 H   0  0  0  0  0  0  0  0  0  0  0  0
   -6.6305   -0.3230    4.3392 H   0  0  0  0  0  0  0  0  0  0  0  0
    2.8438    2.3682    3.0033 H   0  0  0  0  0  0  0  0  0  0  0  0
    1.8966    1.8624   -1.9245 H   0  0  0  0  0  0  0  0  0  0  0  0
    3.3558    2.1077   -3.6921 H   0  0  0  0  0  0  0  0  0  0  0  0
    5.6819    2.1346   -4.4953 H   0  0  0  0  0  0  0  0  0  0  0  0
    7.5239    1.3854   -3.0196 H   0  0  0  0  0  0  0  0  0  0  0  0
    4.6844    0.5262    0.0884 H   0  0  0  0  0  0  0  0  0  0  0  0
    8.9363   -0.2711    0.8313 H   0  0  0  0  0  0  0  0  0  0  0  0
  1  2  1  0
  2  3  1  0
  3  4  1  0
  4  5  1  0
  5  6  1  0
  6  7  2  0
  7  8  1  0
  8  9  2  0
  9 10  1  0
 10 11  2  0
 11 12  1  0
 12 13  1  0
 13 14  1  0
 14 15  1  0
 15 16  1  0
  9 17  1  0
 17 18  2  0
 18 19  1  0
 19 20  2  0
 20 21  1  0
 21 22  1  0
 22 23  2  0
 23 24  1  0
 24 25  2  0
 25 26  1  0
 26 27  2  0
 26 28  1  0
 28 29  3  0
 11  6  1  0
 20  8  1  0
 27 22  1  0
  1 30  1  0
  1 31  1  0
  1 32  1  0
  3 33  1  0
  3 34  1  0
  4 35  1  0
  4 36  1  0
  7 37  1  0
 10 38  1  0
 13 39  1  0
 13 40  1  0
 14 41  1  0
 14 42  1  0
 16 43  1  0
 16 44  1  0
 16 45  1  0
 18 46  1  0
 21 47  1  0
 23 48  1  0
 24 49  1  0
 25 50  1  0
 27 51  1  0
 29 52  1  0
M  END
>  <energy_abs>  (36) 
60.21048677026616

>  <SMILES>  (36) 
COCCOc1cc2c(cc1OCCOC)ncnc2Nc3cccc(c3)C#C

>  <cluster_no>  (36) 
36

>  <fda_drugs_id>  (36) 
AAKJLRGGTJKAMG-UHFFFAOYSA-N

>  <initial_conformation_id>  (36) 
269

>  <minimize_method>  (36) 
MMFF

$$$$

     RDKit          3D

 52 54  0  0  0  0  0  0  0  0999 V2000
   -1.2965   -4.1164   -3.3213 C   0  0  0  0  0  0  0  0  0  0  0  0
   -0.4156   -3.4460   -2.4290 O   0  0  0  0  0  0  0  0  0  0  0  0
   -1.0807   -2.9034   -1.2881 C   0  0  0  0  0  0  0  0  0  0  0  0
   -1.8135   -1.6002   -1.6103 C   0  0  0  0  0  0  0  0  0  0  0  0
   -2.3030   -0.9768   -0.4250 O   0  0  0  0  0  0  0  0  0  0  0  0
   -1.4977   -0.1009    0.2556 C   0  0  0  0  0  0  0  0  0  0  0  0
   -0.1590    0.1555   -0.0449 C   0  0  0  0  0  0  0  0  0  0  0  0
    0.6047    1.0718    0.7245 C   0  0  0  0  0  0  0  0  0  0  0  0
   -0.0020    1.7422    1.7927 C   0  0  0  0  0  0  0  0  0  0  0  0
   -1.3333    1.4757    2.0858 C   0  0  0  0  0  0  0  0  0  0  0  0
   -2.0896    0.5642    1.3407 C   0  0  0  0  0  0  0  0  0  0  0  0
   -3.4048    0.2588    1.5877 O   0  0  0  0  0  0  0  0  0  0  0  0
   -4.0532    0.9245    2.6693 C   0  0  0  0  0  0  0  0  0  0  0  0
   -5.4965    0.4357    2.7411 C   0  0  0  0  0  0  0  0  0  0  0  0
   -6.1646    1.0870    3.8212 O   0  0  0  0  0  0  0  0  0  0  0  0
   -7.5178    0.6644    3.9273 C   0  0  0  0  0  0  0  0  0  0  0  0
    0.6463    2.6315    2.5488 N   0  0  0  0  0  0  0  0  0  0  0  0
    1.9237    2.8699    2.2360 C   0  0  0  0  0  0  0  0  0  0  0  0
    2.6134    2.2943    1.2490 N   0  0  0  0  0  0  0  0  0  0  0  0
    1.9615    1.3881    0.4991 C   0  0  0  0  0  0  0  0  0  0  0  0
    2.6566    0.7142   -0.5423 N   0  0  0  0  0  0  0  0  0  0  0  0
    3.9041    1.0370   -1.1244 C   0  0  0  0  0  0  0  0  0  0  0  0
    4.3907    2.3478   -1.1973 C   0  0  0  0  0  0  0  0  0  0  0  0
    5.5967    2.6370   -1.8431 C   0  0  0  0  0  0  0  0  0  0  0  0
    6.3245    1.6174   -2.4521 C   0  0  0  0  0  0  0  0  0  0  0  0
    5.8388    0.3113   -2.4250 C   0  0  0  0  0  0  0  0  0  0  0  0
    4.6312    0.0276   -1.7767 C   0  0  0  0  0  0  0  0  0  0  0  0
    6.5703   -0.7384   -3.0661 C   0  0  0  0  0  0  0  0  0  0  0  0
    7.1840   -1.6194   -3.6039 C   0  0  0  0  0  0  0  0  0  0  0  0
   -2.0101   -3.4165   -3.7642 H   0  0  0  0  0  0  0  0  0  0  0  0
   -1.8266   -4.9232   -2.8064 H   0  0  0  0  0  0  0  0  0  0  0  0
   -0.6992   -4.5526   -4.1266 H   0  0  0  0  0  0  0  0  0  0  0  0
   -0.3112   -2.7213   -0.5308 H   0  0  0  0  0  0  0  0  0  0  0  0
   -1.7635   -3.6399   -0.8467 H   0  0  0  0  0  0  0  0  0  0  0  0
   -1.2190   -0.9226   -2.2343 H   0  0  0  0  0  0  0  0  0  0  0  0
   -2.6943   -1.8339   -2.2195 H   0  0  0  0  0  0  0  0  0  0  0  0
    0.3234   -0.3378   -0.8820 H   0  0  0  0  0  0  0  0  0  0  0  0
   -1.7661    2.0112    2.9256 H   0  0  0  0  0  0  0  0  0  0  0  0
   -4.0507    2.0105    2.5144 H   0  0  0  0  0  0  0  0  0  0  0  0
   -3.5516    0.7004    3.6189 H   0  0  0  0  0  0  0  0  0  0  0  0
   -5.5143   -0.6509    2.8891 H   0  0  0  0  0  0  0  0  0  0  0  0
   -6.0098    0.6524    1.7964 H   0  0  0  0  0  0  0  0  0  0  0  0
   -8.0687    0.9109    3.0145 H   0  0  0  0  0  0  0  0  0  0  0  0
   -7.5691   -0.4115    4.1203 H   0  0  0  0  0  0  0  0  0  0  0  0
   -7.9785    1.1922    4.7666 H   0  0  0  0  0  0  0  0  0  0  0  0
    2.4508    3.5977    2.8431 H   0  0  0  0  0  0  0  0  0  0  0  0
    2.5645   -0.2872   -0.4037 H   0  0  0  0  0  0  0  0  0  0  0  0
    3.8316    3.1681   -0.7550 H   0  0  0  0  0  0  0  0  0  0  0  0
    5.9599    3.6607   -1.8749 H   0  0  0  0  0  0  0  0  0  0  0  0
    7.2604    1.8493   -2.9539 H   0  0  0  0  0  0  0  0  0  0  0  0
    4.2596   -0.9942   -1.7807 H   0  0  0  0  0  0  0  0  0  0  0  0
    7.7289   -2.4001   -4.0812 H   0  0  0  0  0  0  0  0  0  0  0  0
  1  2  1  0
  2  3  1  0
  3  4  1  0
  4  5  1  0
  5  6  1  0
  6  7  2  0
  7  8  1  0
  8  9  2  0
  9 10  1  0
 10 11  2  0
 11 12  1  0
 12 13  1  0
 13 14  1  0
 14 15  1  0
 15 16  1  0
  9 17  1  0
 17 18  2  0
 18 19  1  0
 19 20  2  0
 20 21  1  0
 21 22  1  0
 22 23  2  0
 23 24  1  0
 24 25  2  0
 25 26  1  0
 26 27  2  0
 26 28  1  0
 28 29  3  0
 11  6  1  0
 20  8  1  0
 27 22  1  0
  1 30  1  0
  1 31  1  0
  1 32  1  0
  3 33  1  0
  3 34  1  0
  4 35  1  0
  4 36  1  0
  7 37  1  0
 10 38  1  0
 13 39  1  0
 13 40  1  0
 14 41  1  0
 14 42  1  0
 16 43  1  0
 16 44  1  0
 16 45  1  0
 18 46  1  0
 21 47  1  0
 23 48  1  0
 24 49  1  0
 25 50  1  0
 27 51  1  0
 29 52  1  0
M  END
>  <energy_abs>  (37) 
58.11286205636391

>  <SMILES>  (37) 
COCCOc1cc2c(cc1OCCOC)ncnc2Nc3cccc(c3)C#C

>  <cluster_no>  (37) 
37

>  <fda_drugs_id>  (37) 
AAKJLRGGTJKAMG-UHFFFAOYSA-N

>  <initial_conformation_id>  (37) 
268

>  <minimize_method>  (37) 
MMFF

$$$$

     RDKit          3D

 52 54  0  0  0  0  0  0  0  0999 V2000
   -2.0720   -4.6757   -3.3075 C   0  0  0  0  0  0  0  0  0  0  0  0
   -1.7214   -3.4251   -2.7298 O   0  0  0  0  0  0  0  0  0  0  0  0
   -2.8443   -2.7942   -2.1066 C   0  0  0  0  0  0  0  0  0  0  0  0
   -2.4014   -1.4788   -1.4716 C   0  0  0  0  0  0  0  0  0  0  0  0
   -1.6342   -1.7710   -0.2925 O   0  0  0  0  0  0  0  0  0  0  0  0
   -1.2029   -0.6155    0.3041 C   0  0  0  0  0  0  0  0  0  0  0  0
    0.1114   -0.2218    0.0673 C   0  0  0  0  0  0  0  0  0  0  0  0
    0.6406    0.9292    0.6986 C   0  0  0  0  0  0  0  0  0  0  0  0
   -0.1747    1.6618    1.5755 C   0  0  0  0  0  0  0  0  0  0  0  0
   -1.4818    1.2403    1.8023 C   0  0  0  0  0  0  0  0  0  0  0  0
   -2.0166    0.1134    1.1730 C   0  0  0  0  0  0  0  0  0  0  0  0
   -3.2802   -0.3663    1.3896 O   0  0  0  0  0  0  0  0  0  0  0  0
   -4.2952    0.5893    1.6972 C   0  0  0  0  0  0  0  0  0  0  0  0
   -4.6797    0.5083    3.1693 C   0  0  0  0  0  0  0  0  0  0  0  0
   -5.6530    1.5140    3.4519 O   0  0  0  0  0  0  0  0  0  0  0  0
   -6.0813    1.4620    4.8046 C   0  0  0  0  0  0  0  0  0  0  0  0
    0.2521    2.7555    2.2109 N   0  0  0  0  0  0  0  0  0  0  0  0
    1.5102    3.1386    1.9679 C   0  0  0  0  0  0  0  0  0  0  0  0
    2.3769    2.5328    1.1526 N   0  0  0  0  0  0  0  0  0  0  0  0
    1.9488    1.4258    0.5188 C   0  0  0  0  0  0  0  0  0  0  0  0
    2.8245    0.7394   -0.3626 N   0  0  0  0  0  0  0  0  0  0  0  0
    4.0498    1.1598   -0.9245 C   0  0  0  0  0  0  0  0  0  0  0  0
    4.3977    2.5064   -1.0832 C   0  0  0  0  0  0  0  0  0  0  0  0
    5.5914    2.8793   -1.7089 C   0  0  0  0  0  0  0  0  0  0  0  0
    6.4437    1.9064   -2.2216 C   0  0  0  0  0  0  0  0  0  0  0  0
    6.0945    0.5606   -2.1186 C   0  0  0  0  0  0  0  0  0  0  0  0
    4.9037    0.1937   -1.4819 C   0  0  0  0  0  0  0  0  0  0  0  0
    6.9469   -0.4417   -2.6797 C   0  0  0  0  0  0  0  0  0  0  0  0
    7.6653   -1.2720   -3.1651 C   0  0  0  0  0  0  0  0  0  0  0  0
   -1.1774   -5.1178   -3.7538 H   0  0  0  0  0  0  0  0  0  0  0  0
   -2.4512   -5.3604   -2.5404 H   0  0  0  0  0  0  0  0  0  0  0  0
   -2.8220   -4.5383   -4.0913 H   0  0  0  0  0  0  0  0  0  0  0  0
   -3.2567   -3.4599   -1.3398 H   0  0  0  0  0  0  0  0  0  0  0  0
   -3.6049   -2.5987   -2.8678 H   0  0  0  0  0  0  0  0  0  0  0  0
   -3.2895   -0.9034   -1.2052 H   0  0  0  0  0  0  0  0  0  0  0  0
   -1.7893   -0.9062   -2.1775 H   0  0  0  0  0  0  0  0  0  0  0  0
    0.7121   -0.8137   -0.6192 H   0  0  0  0  0  0  0  0  0  0  0  0
   -2.0729    1.8173    2.5095 H   0  0  0  0  0  0  0  0  0  0  0  0
   -4.0410    1.6129    1.3956 H   0  0  0  0  0  0  0  0  0  0  0  0
   -5.1709    0.3308    1.0932 H   0  0  0  0  0  0  0  0  0  0  0  0
   -3.7989    0.6583    3.8040 H   0  0  0  0  0  0  0  0  0  0  0  0
   -5.0842   -0.4856    3.3925 H   0  0  0  0  0  0  0  0  0  0  0  0
   -6.5792    0.5113    5.0084 H   0  0  0  0  0  0  0  0  0  0  0  0
   -6.7933    2.2745    4.9667 H   0  0  0  0  0  0  0  0  0  0  0  0
   -5.2364    1.5966    5.4852 H   0  0  0  0  0  0  0  0  0  0  0  0
    1.8602    4.0285    2.4815 H   0  0  0  0  0  0  0  0  0  0  0  0
    2.8445   -0.2436   -0.1170 H   0  0  0  0  0  0  0  0  0  0  0  0
    3.7404    3.2934   -0.7241 H   0  0  0  0  0  0  0  0  0  0  0  0
    5.8456    3.9323   -1.7993 H   0  0  0  0  0  0  0  0  0  0  0  0
    7.3677    2.2045   -2.7120 H   0  0  0  0  0  0  0  0  0  0  0  0
    4.6400   -0.8598   -1.4264 H   0  0  0  0  0  0  0  0  0  0  0  0
    8.3023   -2.0054   -3.6021 H   0  0  0  0  0  0  0  0  0  0  0  0
  1  2  1  0
  2  3  1  0
  3  4  1  0
  4  5  1  0
  5  6  1  0
  6  7  2  0
  7  8  1  0
  8  9  2  0
  9 10  1  0
 10 11  2  0
 11 12  1  0
 12 13  1  0
 13 14  1  0
 14 15  1  0
 15 16  1  0
  9 17  1  0
 17 18  2  0
 18 19  1  0
 19 20  2  0
 20 21  1  0
 21 22  1  0
 22 23  2  0
 23 24  1  0
 24 25  2  0
 25 26  1  0
 26 27  2  0
 26 28  1  0
 28 29  3  0
 11  6  1  0
 20  8  1  0
 27 22  1  0
  1 30  1  0
  1 31  1  0
  1 32  1  0
  3 33  1  0
  3 34  1  0
  4 35  1  0
  4 36  1  0
  7 37  1  0
 10 38  1  0
 13 39  1  0
 13 40  1  0
 14 41  1  0
 14 42  1  0
 16 43  1  0
 16 44  1  0
 16 45  1  0
 18 46  1  0
 21 47  1  0
 23 48  1  0
 24 49  1  0
 25 50  1  0
 27 51  1  0
 29 52  1  0
M  END
>  <energy_abs>  (38) 
58.25295316222464

>  <SMILES>  (38) 
COCCOc1cc2c(cc1OCCOC)ncnc2Nc3cccc(c3)C#C

>  <cluster_no>  (38) 
38

>  <fda_drugs_id>  (38) 
AAKJLRGGTJKAMG-UHFFFAOYSA-N

>  <initial_conformation_id>  (38) 
267

>  <minimize_method>  (38) 
MMFF

$$$$

     RDKit          3D

 52 54  0  0  0  0  0  0  0  0999 V2000
    0.0162   -4.8027   -2.0585 C   0  0  0  0  0  0  0  0  0  0  0  0
   -0.7024   -3.6057   -2.3306 O   0  0  0  0  0  0  0  0  0  0  0  0
   -1.1915   -3.0061   -1.1311 C   0  0  0  0  0  0  0  0  0  0  0  0
   -1.9522   -1.7307   -1.4870 C   0  0  0  0  0  0  0  0  0  0  0  0
   -2.4631   -1.0741   -0.3281 O   0  0  0  0  0  0  0  0  0  0  0  0
   -1.6365   -0.2849    0.4210 C   0  0  0  0  0  0  0  0  0  0  0  0
   -0.3287    0.0615    0.0795 C   0  0  0  0  0  0  0  0  0  0  0  0
    0.4781    0.8547    0.9430 C   0  0  0  0  0  0  0  0  0  0  0  0
   -0.0398    1.2846    2.1712 C   0  0  0  0  0  0  0  0  0  0  0  0
   -1.3429    0.9443    2.4962 C   0  0  0  0  0  0  0  0  0  0  0  0
   -2.1455    0.1927    1.6329 C   0  0  0  0  0  0  0  0  0  0  0  0
   -3.4018   -0.0931    2.1032 O   0  0  0  0  0  0  0  0  0  0  0  0
   -4.4490    0.3137    1.2111 C   0  0  0  0  0  0  0  0  0  0  0  0
   -5.6373    0.8087    2.0410 C   0  0  0  0  0  0  0  0  0  0  0  0
   -5.3479    1.9879    2.7994 O   0  0  0  0  0  0  0  0  0  0  0  0
   -5.2783    3.1690    2.0148 C   0  0  0  0  0  0  0  0  0  0  0  0
    0.6694    2.0072    3.0423 N   0  0  0  0  0  0  0  0  0  0  0  0
    1.9256    2.3034    2.6965 C   0  0  0  0  0  0  0  0  0  0  0  0
    2.5312    1.9583    1.5580 N   0  0  0  0  0  0  0  0  0  0  0  0
    1.8075    1.2449    0.6770 C   0  0  0  0  0  0  0  0  0  0  0  0
    2.3861    0.8892   -0.5727 N   0  0  0  0  0  0  0  0  0  0  0  0
    3.7498    0.9102   -0.9456 C   0  0  0  0  0  0  0  0  0  0  0  0
    4.7866    0.6964   -0.0295 C   0  0  0  0  0  0  0  0  0  0  0  0
    6.1205    0.6492   -0.4455 C   0  0  0  0  0  0  0  0  0  0  0  0
    6.4365    0.7912   -1.7945 C   0  0  0  0  0  0  0  0  0  0  0  0
    5.4167    0.9691   -2.7274 C   0  0  0  0  0  0  0  0  0  0  0  0
    4.0831    1.0150   -2.3057 C   0  0  0  0  0  0  0  0  0  0  0  0
    5.7318    1.0969   -4.1176 C   0  0  0  0  0  0  0  0  0  0  0  0
    5.9965    1.2035   -5.2840 C   0  0  0  0  0  0  0  0  0  0  0  0
    0.3632   -5.2193   -3.0079 H   0  0  0  0  0  0  0  0  0  0  0  0
    0.8870   -4.5917   -1.4301 H   0  0  0  0  0  0  0  0  0  0  0  0
   -0.6328   -5.5365   -1.5706 H   0  0  0  0  0  0  0  0  0  0  0  0
   -1.8597   -3.7007   -0.6078 H   0  0  0  0  0  0  0  0  0  0  0  0
   -0.3529   -2.7856   -0.4616 H   0  0  0  0  0  0  0  0  0  0  0  0
   -2.8199   -2.0097   -2.0976 H   0  0  0  0  0  0  0  0  0  0  0  0
   -1.3738   -1.0579   -2.1306 H   0  0  0  0  0  0  0  0  0  0  0  0
    0.1137   -0.2943   -0.8451 H   0  0  0  0  0  0  0  0  0  0  0  0
   -1.7557    1.2747    3.4474 H   0  0  0  0  0  0  0  0  0  0  0  0
   -4.1153    1.0975    0.5211 H   0  0  0  0  0  0  0  0  0  0  0  0
   -4.7670   -0.5598    0.6323 H   0  0  0  0  0  0  0  0  0  0  0  0
   -6.5095    0.9868    1.4023 H   0  0  0  0  0  0  0  0  0  0  0  0
   -5.9101    0.0377    2.7698 H   0  0  0  0  0  0  0  0  0  0  0  0
   -5.1539    4.0197    2.6909 H   0  0  0  0  0  0  0  0  0  0  0  0
   -6.2021    3.3112    1.4457 H   0  0  0  0  0  0  0  0  0  0  0  0
   -4.4181    3.1429    1.3411 H   0  0  0  0  0  0  0  0  0  0  0  0
    2.5071    2.8817    3.4062 H   0  0  0  0  0  0  0  0  0  0  0  0
    1.7954    1.2470   -1.3164 H   0  0  0  0  0  0  0  0  0  0  0  0
    4.5679    0.5565    1.0260 H   0  0  0  0  0  0  0  0  0  0  0  0
    6.9089    0.4931    0.2858 H   0  0  0  0  0  0  0  0  0  0  0  0
    7.4756    0.7519   -2.1114 H   0  0  0  0  0  0  0  0  0  0  0  0
    3.3005    1.1378   -3.0494 H   0  0  0  0  0  0  0  0  0  0  0  0
    6.2334    1.2980   -6.3181 H   0  0  0  0  0  0  0  0  0  0  0  0
  1  2  1  0
  2  3  1  0
  3  4  1  0
  4  5  1  0
  5  6  1  0
  6  7  2  0
  7  8  1  0
  8  9  2  0
  9 10  1  0
 10 11  2  0
 11 12  1  0
 12 13  1  0
 13 14  1  0
 14 15  1  0
 15 16  1  0
  9 17  1  0
 17 18  2  0
 18 19  1  0
 19 20  2  0
 20 21  1  0
 21 22  1  0
 22 23  2  0
 23 24  1  0
 24 25  2  0
 25 26  1  0
 26 27  2  0
 26 28  1  0
 28 29  3  0
 11  6  1  0
 20  8  1  0
 27 22  1  0
  1 30  1  0
  1 31  1  0
  1 32  1  0
  3 33  1  0
  3 34  1  0
  4 35  1  0
  4 36  1  0
  7 37  1  0
 10 38  1  0
 13 39  1  0
 13 40  1  0
 14 41  1  0
 14 42  1  0
 16 43  1  0
 16 44  1  0
 16 45  1  0
 18 46  1  0
 21 47  1  0
 23 48  1  0
 24 49  1  0
 25 50  1  0
 27 51  1  0
 29 52  1  0
M  END
>  <energy_abs>  (39) 
59.929549886156764

>  <SMILES>  (39) 
COCCOc1cc2c(cc1OCCOC)ncnc2Nc3cccc(c3)C#C

>  <cluster_no>  (39) 
39

>  <fda_drugs_id>  (39) 
AAKJLRGGTJKAMG-UHFFFAOYSA-N

>  <initial_conformation_id>  (39) 
266

>  <minimize_method>  (39) 
MMFF

$$$$

     RDKit          3D

 52 54  0  0  0  0  0  0  0  0999 V2000
   -2.3678   -5.0374   -3.6145 C   0  0  0  0  0  0  0  0  0  0  0  0
   -1.5579   -4.0162   -3.0461 O   0  0  0  0  0  0  0  0  0  0  0  0
   -2.2868   -3.2416   -2.0940 C   0  0  0  0  0  0  0  0  0  0  0  0
   -1.3768   -2.1581   -1.5244 C   0  0  0  0  0  0  0  0  0  0  0  0
   -2.1135   -1.4064   -0.5635 O   0  0  0  0  0  0  0  0  0  0  0  0
   -1.4775   -0.3734    0.0748 C   0  0  0  0  0  0  0  0  0  0  0  0
   -0.1488   -0.0035   -0.1409 C   0  0  0  0  0  0  0  0  0  0  0  0
    0.4349    1.0775    0.5693 C   0  0  0  0  0  0  0  0  0  0  0  0
   -0.3431    1.7940    1.4858 C   0  0  0  0  0  0  0  0  0  0  0  0
   -1.6637    1.4157    1.6908 C   0  0  0  0  0  0  0  0  0  0  0  0
   -2.2459    0.3459    1.0036 C   0  0  0  0  0  0  0  0  0  0  0  0
   -3.5390   -0.0813    1.1683 O   0  0  0  0  0  0  0  0  0  0  0  0
   -4.4226    0.6629    2.0050 C   0  0  0  0  0  0  0  0  0  0  0  0
   -4.3365    0.1941    3.4579 C   0  0  0  0  0  0  0  0  0  0  0  0
   -5.2278    0.9187    4.3060 O   0  0  0  0  0  0  0  0  0  0  0  0
   -4.6880    2.1579    4.7470 C   0  0  0  0  0  0  0  0  0  0  0  0
    0.1288    2.8326    2.1794 N   0  0  0  0  0  0  0  0  0  0  0  0
    1.4000    3.1787    1.9524 C   0  0  0  0  0  0  0  0  0  0  0  0
    2.2418    2.5759    1.1107 N   0  0  0  0  0  0  0  0  0  0  0  0
    1.7672    1.5197    0.4267 C   0  0  0  0  0  0  0  0  0  0  0  0
    2.6326    0.8115   -0.4516 N   0  0  0  0  0  0  0  0  0  0  0  0
    3.8932    1.2083   -0.9547 C   0  0  0  0  0  0  0  0  0  0  0  0
    4.2376    2.5494   -1.1630 C   0  0  0  0  0  0  0  0  0  0  0  0
    5.4672    2.9010   -1.7283 C   0  0  0  0  0  0  0  0  0  0  0  0
    6.3644    1.9101   -2.1197 C   0  0  0  0  0  0  0  0  0  0  0  0
    6.0254    0.5681   -1.9566 C   0  0  0  0  0  0  0  0  0  0  0  0
    4.7933    0.2219   -1.3900 C   0  0  0  0  0  0  0  0  0  0  0  0
    6.9332   -0.4561   -2.3749 C   0  0  0  0  0  0  0  0  0  0  0  0
    7.6950   -1.3154   -2.7261 C   0  0  0  0  0  0  0  0  0  0  0  0
   -2.7166   -5.7258   -2.8388 H   0  0  0  0  0  0  0  0  0  0  0  0
   -3.2205   -4.6004   -4.1429 H   0  0  0  0  0  0  0  0  0  0  0  0
   -1.7621   -5.5975   -4.3320 H   0  0  0  0  0  0  0  0  0  0  0  0
   -2.6501   -3.8866   -1.2848 H   0  0  0  0  0  0  0  0  0  0  0  0
   -3.1597   -2.7808   -2.5722 H   0  0  0  0  0  0  0  0  0  0  0  0
   -1.0341   -1.5124   -2.3424 H   0  0  0  0  0  0  0  0  0  0  0  0
   -0.5040   -2.6323   -1.0586 H   0  0  0  0  0  0  0  0  0  0  0  0
    0.4561   -0.5298   -0.8720 H   0  0  0  0  0  0  0  0  0  0  0  0
   -2.2251    1.9923    2.4182 H   0  0  0  0  0  0  0  0  0  0  0  0
   -5.4400    0.4675    1.6440 H   0  0  0  0  0  0  0  0  0  0  0  0
   -4.2966    1.7446    1.8867 H   0  0  0  0  0  0  0  0  0  0  0  0
   -3.3125    0.2353    3.8466 H   0  0  0  0  0  0  0  0  0  0  0  0
   -4.6294   -0.8613    3.5026 H   0  0  0  0  0  0  0  0  0  0  0  0
   -4.4945    2.8245    3.9024 H   0  0  0  0  0  0  0  0  0  0  0  0
   -5.4206    2.6357    5.4031 H   0  0  0  0  0  0  0  0  0  0  0  0
   -3.7679    1.9940    5.3160 H   0  0  0  0  0  0  0  0  0  0  0  0
    1.7851    4.0278    2.5066 H   0  0  0  0  0  0  0  0  0  0  0  0
    2.6347   -0.1683   -0.1867 H   0  0  0  0  0  0  0  0  0  0  0  0
    3.5469    3.3436   -0.8923 H   0  0  0  0  0  0  0  0  0  0  0  0
    5.7170    3.9493   -1.8682 H   0  0  0  0  0  0  0  0  0  0  0  0
    7.3179    2.1903   -2.5601 H   0  0  0  0  0  0  0  0  0  0  0  0
    4.5398   -0.8301   -1.2860 H   0  0  0  0  0  0  0  0  0  0  0  0
    8.3717   -2.0763   -3.0383 H   0  0  0  0  0  0  0  0  0  0  0  0
  1  2  1  0
  2  3  1  0
  3  4  1  0
  4  5  1  0
  5  6  1  0
  6  7  2  0
  7  8  1  0
  8  9  2  0
  9 10  1  0
 10 11  2  0
 11 12  1  0
 12 13  1  0
 13 14  1  0
 14 15  1  0
 15 16  1  0
  9 17  1  0
 17 18  2  0
 18 19  1  0
 19 20  2  0
 20 21  1  0
 21 22  1  0
 22 23  2  0
 23 24  1  0
 24 25  2  0
 25 26  1  0
 26 27  2  0
 26 28  1  0
 28 29  3  0
 11  6  1  0
 20  8  1  0
 27 22  1  0
  1 30  1  0
  1 31  1  0
  1 32  1  0
  3 33  1  0
  3 34  1  0
  4 35  1  0
  4 36  1  0
  7 37  1  0
 10 38  1  0
 13 39  1  0
 13 40  1  0
 14 41  1  0
 14 42  1  0
 16 43  1  0
 16 44  1  0
 16 45  1  0
 18 46  1  0
 21 47  1  0
 23 48  1  0
 24 49  1  0
 25 50  1  0
 27 51  1  0
 29 52  1  0
M  END
>  <energy_abs>  (40) 
58.42437308416412

>  <SMILES>  (40) 
COCCOc1cc2c(cc1OCCOC)ncnc2Nc3cccc(c3)C#C

>  <cluster_no>  (40) 
40

>  <fda_drugs_id>  (40) 
AAKJLRGGTJKAMG-UHFFFAOYSA-N

>  <initial_conformation_id>  (40) 
265

>  <minimize_method>  (40) 
MMFF

$$$$

     RDKit          3D

 52 54  0  0  0  0  0  0  0  0999 V2000
   -1.2265   -4.5817   -2.9285 C   0  0  0  0  0  0  0  0  0  0  0  0
   -0.3269   -3.7276   -2.2336 O   0  0  0  0  0  0  0  0  0  0  0  0
   -0.9119   -3.1234   -1.0795 C   0  0  0  0  0  0  0  0  0  0  0  0
   -1.7339   -1.8866   -1.4420 C   0  0  0  0  0  0  0  0  0  0  0  0
   -2.2257   -1.2343   -0.2739 O   0  0  0  0  0  0  0  0  0  0  0  0
   -1.4933   -0.2224    0.2891 C   0  0  0  0  0  0  0  0  0  0  0  0
   -0.1757    0.0937   -0.0453 C   0  0  0  0  0  0  0  0  0  0  0  0
    0.5098    1.1581    0.5975 C   0  0  0  0  0  0  0  0  0  0  0  0
   -0.1425    1.8877    1.5985 C   0  0  0  0  0  0  0  0  0  0  0  0
   -1.4504    1.5581    1.9289 C   0  0  0  0  0  0  0  0  0  0  0  0
   -2.1358    0.5165    1.2947 C   0  0  0  0  0  0  0  0  0  0  0  0
   -3.4268    0.1477    1.5793 O   0  0  0  0  0  0  0  0  0  0  0  0
   -4.0953    0.8183    2.6458 C   0  0  0  0  0  0  0  0  0  0  0  0
   -5.4775    0.1889    2.8184 C   0  0  0  0  0  0  0  0  0  0  0  0
   -6.2056    0.7789    3.8957 O   0  0  0  0  0  0  0  0  0  0  0  0
   -6.8744    1.9761    3.5228 C   0  0  0  0  0  0  0  0  0  0  0  0
    0.4408    2.8912    2.2583 N   0  0  0  0  0  0  0  0  0  0  0  0
    1.7051    3.1729    1.9292 C   0  0  0  0  0  0  0  0  0  0  0  0
    2.4322    2.5545    0.9967 N   0  0  0  0  0  0  0  0  0  0  0  0
    1.8361    1.5547    0.3228 C   0  0  0  0  0  0  0  0  0  0  0  0
    2.5523    0.8833   -0.7055 N   0  0  0  0  0  0  0  0  0  0  0  0
    3.9388    0.9153   -0.9805 C   0  0  0  0  0  0  0  0  0  0  0  0
    4.9042    1.1203    0.0127 C   0  0  0  0  0  0  0  0  0  0  0  0
    6.2696    1.0793   -0.2862 C   0  0  0  0  0  0  0  0  0  0  0  0
    6.6923    0.8048   -1.5848 C   0  0  0  0  0  0  0  0  0  0  0  0
    5.7485    0.5594   -2.5805 C   0  0  0  0  0  0  0  0  0  0  0  0
    4.3831    0.6023   -2.2757 C   0  0  0  0  0  0  0  0  0  0  0  0
    6.1750    0.2595   -3.9132 C   0  0  0  0  0  0  0  0  0  0  0  0
    6.5331    0.0091   -5.0318 C   0  0  0  0  0  0  0  0  0  0  0  0
   -0.6895   -5.0326   -3.7677 H   0  0  0  0  0  0  0  0  0  0  0  0
   -1.5802   -5.3831   -2.2726 H   0  0  0  0  0  0  0  0  0  0  0  0
   -2.0739   -4.0170   -3.3259 H   0  0  0  0  0  0  0  0  0  0  0  0
   -1.5139   -3.8474   -0.5167 H   0  0  0  0  0  0  0  0  0  0  0  0
   -0.0888   -2.8402   -0.4156 H   0  0  0  0  0  0  0  0  0  0  0  0
   -1.1973   -1.2095   -2.1175 H   0  0  0  0  0  0  0  0  0  0  0  0
   -2.6155   -2.2021   -2.0115 H   0  0  0  0  0  0  0  0  0  0  0  0
    0.3598   -0.4907   -0.7862 H   0  0  0  0  0  0  0  0  0  0  0  0
   -1.9214    2.1480    2.7094 H   0  0  0  0  0  0  0  0  0  0  0  0
   -4.1998    1.8838    2.4132 H   0  0  0  0  0  0  0  0  0  0  0  0
   -3.5373    0.7131    3.5842 H   0  0  0  0  0  0  0  0  0  0  0  0
   -5.3546   -0.8749    3.0523 H   0  0  0  0  0  0  0  0  0  0  0  0
   -6.0532    0.2285    1.8854 H   0  0  0  0  0  0  0  0  0  0  0  0
   -7.4240    2.3456    4.3929 H   0  0  0  0  0  0  0  0  0  0  0  0
   -6.1612    2.7448    3.2143 H   0  0  0  0  0  0  0  0  0  0  0  0
   -7.5902    1.7808    2.7187 H   0  0  0  0  0  0  0  0  0  0  0  0
    2.1854    3.9815    2.4694 H   0  0  0  0  0  0  0  0  0  0  0  0
    2.0065    0.9120   -1.5604 H   0  0  0  0  0  0  0  0  0  0  0  0
    4.6053    1.3092    1.0406 H   0  0  0  0  0  0  0  0  0  0  0  0
    6.9994    1.2549    0.4994 H   0  0  0  0  0  0  0  0  0  0  0  0
    7.7553    0.7734   -1.8102 H   0  0  0  0  0  0  0  0  0  0  0  0
    3.6624    0.3922   -3.0621 H   0  0  0  0  0  0  0  0  0  0  0  0
    6.8521   -0.2139   -6.0232 H   0  0  0  0  0  0  0  0  0  0  0  0
  1  2  1  0
  2  3  1  0
  3  4  1  0
  4  5  1  0
  5  6  1  0
  6  7  2  0
  7  8  1  0
  8  9  2  0
  9 10  1  0
 10 11  2  0
 11 12  1  0
 12 13  1  0
 13 14  1  0
 14 15  1  0
 15 16  1  0
  9 17  1  0
 17 18  2  0
 18 19  1  0
 19 20  2  0
 20 21  1  0
 21 22  1  0
 22 23  2  0
 23 24  1  0
 24 25  2  0
 25 26  1  0
 26 27  2  0
 26 28  1  0
 28 29  3  0
 11  6  1  0
 20  8  1  0
 27 22  1  0
  1 30  1  0
  1 31  1  0
  1 32  1  0
  3 33  1  0
  3 34  1  0
  4 35  1  0
  4 36  1  0
  7 37  1  0
 10 38  1  0
 13 39  1  0
 13 40  1  0
 14 41  1  0
 14 42  1  0
 16 43  1  0
 16 44  1  0
 16 45  1  0
 18 46  1  0
 21 47  1  0
 23 48  1  0
 24 49  1  0
 25 50  1  0
 27 51  1  0
 29 52  1  0
M  END
>  <energy_abs>  (41) 
60.20265876983873

>  <SMILES>  (41) 
COCCOc1cc2c(cc1OCCOC)ncnc2Nc3cccc(c3)C#C

>  <cluster_no>  (41) 
41

>  <fda_drugs_id>  (41) 
AAKJLRGGTJKAMG-UHFFFAOYSA-N

>  <initial_conformation_id>  (41) 
264

>  <minimize_method>  (41) 
MMFF

$$$$

     RDKit          3D

 52 54  0  0  0  0  0  0  0  0999 V2000
   -0.8909   -3.0664   -4.2335 C   0  0  0  0  0  0  0  0  0  0  0  0
   -1.0412   -3.1572   -2.8220 O   0  0  0  0  0  0  0  0  0  0  0  0
   -1.8028   -2.0641   -2.3070 C   0  0  0  0  0  0  0  0  0  0  0  0
   -1.9339   -2.2101   -0.7935 C   0  0  0  0  0  0  0  0  0  0  0  0
   -2.6417   -1.1092   -0.2299 O   0  0  0  0  0  0  0  0  0  0  0  0
   -1.9397   -0.0135    0.1937 C   0  0  0  0  0  0  0  0  0  0  0  0
   -0.5830    0.2175   -0.0272 C   0  0  0  0  0  0  0  0  0  0  0  0
    0.0507    1.3977    0.4515 C   0  0  0  0  0  0  0  0  0  0  0  0
   -0.7084    2.3655    1.1231 C   0  0  0  0  0  0  0  0  0  0  0  0
   -2.0580    2.1308    1.3297 C   0  0  0  0  0  0  0  0  0  0  0  0
   -2.6666    0.9481    0.9019 C   0  0  0  0  0  0  0  0  0  0  0  0
   -4.0070    0.7378    1.1076 O   0  0  0  0  0  0  0  0  0  0  0  0
   -4.3683    0.6501    2.4954 C   0  0  0  0  0  0  0  0  0  0  0  0
   -3.9061   -0.6596    3.1511 C   0  0  0  0  0  0  0  0  0  0  0  0
   -2.5198   -0.6583    3.5170 O   0  0  0  0  0  0  0  0  0  0  0  0
   -2.2477    0.0750    4.7037 C   0  0  0  0  0  0  0  0  0  0  0  0
   -0.1892    3.5114    1.5714 N   0  0  0  0  0  0  0  0  0  0  0  0
    1.1137    3.7070    1.3470 C   0  0  0  0  0  0  0  0  0  0  0  0
    1.9434    2.8629    0.7301 N   0  0  0  0  0  0  0  0  0  0  0  0
    1.4184    1.7048    0.2911 C   0  0  0  0  0  0  0  0  0  0  0  0
    2.2629    0.7494   -0.3397 N   0  0  0  0  0  0  0  0  0  0  0  0
    3.5776    0.9190   -0.8315 C   0  0  0  0  0  0  0  0  0  0  0  0
    4.0599    2.1461   -1.3028 C   0  0  0  0  0  0  0  0  0  0  0  0
    5.3437    2.2592   -1.8449 C   0  0  0  0  0  0  0  0  0  0  0  0
    6.1584    1.1345   -1.9502 C   0  0  0  0  0  0  0  0  0  0  0  0
    5.6832   -0.1045   -1.5242 C   0  0  0  0  0  0  0  0  0  0  0  0
    4.3980   -0.2115   -0.9808 C   0  0  0  0  0  0  0  0  0  0  0  0
    6.5080   -1.2677   -1.6472 C   0  0  0  0  0  0  0  0  0  0  0  0
    7.2052   -2.2403   -1.7506 C   0  0  0  0  0  0  0  0  0  0  0  0
   -1.8693   -3.0605   -4.7249 H   0  0  0  0  0  0  0  0  0  0  0  0
   -0.3288   -2.1662   -4.4990 H   0  0  0  0  0  0  0  0  0  0  0  0
   -0.3335   -3.9417   -4.5761 H   0  0  0  0  0  0  0  0  0  0  0  0
   -2.8005   -2.0534   -2.7630 H   0  0  0  0  0  0  0  0  0  0  0  0
   -1.3129   -1.1185   -2.5642 H   0  0  0  0  0  0  0  0  0  0  0  0
   -2.5267   -3.1094   -0.5846 H   0  0  0  0  0  0  0  0  0  0  0  0
   -0.9714   -2.3958   -0.3019 H   0  0  0  0  0  0  0  0  0  0  0  0
    0.0112   -0.4937   -0.5910 H   0  0  0  0  0  0  0  0  0  0  0  0
   -2.6479    2.8939    1.8284 H   0  0  0  0  0  0  0  0  0  0  0  0
   -5.4640    0.6633    2.5081 H   0  0  0  0  0  0  0  0  0  0  0  0
   -4.0405    1.5370    3.0459 H   0  0  0  0  0  0  0  0  0  0  0  0
   -4.0438   -1.4886    2.4479 H   0  0  0  0  0  0  0  0  0  0  0  0
   -4.5101   -0.8732    4.0408 H   0  0  0  0  0  0  0  0  0  0  0  0
   -2.8228   -0.3249    5.5445 H   0  0  0  0  0  0  0  0  0  0  0  0
   -1.1829   -0.0277    4.9332 H   0  0  0  0  0  0  0  0  0  0  0  0
   -2.4660    1.1376    4.5698 H   0  0  0  0  0  0  0  0  0  0  0  0
    1.5386    4.6392    1.7021 H   0  0  0  0  0  0  0  0  0  0  0  0
    2.1626   -0.1393    0.1412 H   0  0  0  0  0  0  0  0  0  0  0  0
    3.4376    3.0362   -1.2592 H   0  0  0  0  0  0  0  0  0  0  0  0
    5.7012    3.2252   -2.1900 H   0  0  0  0  0  0  0  0  0  0  0  0
    7.1551    1.2291   -2.3738 H   0  0  0  0  0  0  0  0  0  0  0  0
    4.0383   -1.1887   -0.6693 H   0  0  0  0  0  0  0  0  0  0  0  0
    7.8246   -3.1024   -1.8427 H   0  0  0  0  0  0  0  0  0  0  0  0
  1  2  1  0
  2  3  1  0
  3  4  1  0
  4  5  1  0
  5  6  1  0
  6  7  2  0
  7  8  1  0
  8  9  2  0
  9 10  1  0
 10 11  2  0
 11 12  1  0
 12 13  1  0
 13 14  1  0
 14 15  1  0
 15 16  1  0
  9 17  1  0
 17 18  2  0
 18 19  1  0
 19 20  2  0
 20 21  1  0
 21 22  1  0
 22 23  2  0
 23 24  1  0
 24 25  2  0
 25 26  1  0
 26 27  2  0
 26 28  1  0
 28 29  3  0
 11  6  1  0
 20  8  1  0
 27 22  1  0
  1 30  1  0
  1 31  1  0
  1 32  1  0
  3 33  1  0
  3 34  1  0
  4 35  1  0
  4 36  1  0
  7 37  1  0
 10 38  1  0
 13 39  1  0
 13 40  1  0
 14 41  1  0
 14 42  1  0
 16 43  1  0
 16 44  1  0
 16 45  1  0
 18 46  1  0
 21 47  1  0
 23 48  1  0
 24 49  1  0
 25 50  1  0
 27 51  1  0
 29 52  1  0
M  END
>  <energy_abs>  (42) 
61.52423326650606

>  <SMILES>  (42) 
COCCOc1cc2c(cc1OCCOC)ncnc2Nc3cccc(c3)C#C

>  <cluster_no>  (42) 
42

>  <fda_drugs_id>  (42) 
AAKJLRGGTJKAMG-UHFFFAOYSA-N

>  <initial_conformation_id>  (42) 
263

>  <minimize_method>  (42) 
MMFF

$$$$

     RDKit          3D

 52 54  0  0  0  0  0  0  0  0999 V2000
   -1.4696   -4.1590   -3.5401 C   0  0  0  0  0  0  0  0  0  0  0  0
   -0.9018   -2.8868   -3.2565 O   0  0  0  0  0  0  0  0  0  0  0  0
   -1.6723   -2.1230   -2.3264 C   0  0  0  0  0  0  0  0  0  0  0  0
   -1.4678   -2.5894   -0.8823 C   0  0  0  0  0  0  0  0  0  0  0  0
   -2.1172   -1.7232    0.0471 O   0  0  0  0  0  0  0  0  0  0  0  0
   -1.4959   -0.5685    0.4320 C   0  0  0  0  0  0  0  0  0  0  0  0
   -0.2001   -0.1849    0.0880 C   0  0  0  0  0  0  0  0  0  0  0  0
    0.3489    1.0477    0.5380 C   0  0  0  0  0  0  0  0  0  0  0  0
   -0.4202    1.8904    1.3497 C   0  0  0  0  0  0  0  0  0  0  0  0
   -1.7074    1.5003    1.6824 C   0  0  0  0  0  0  0  0  0  0  0  0
   -2.2374    0.2817    1.2516 C   0  0  0  0  0  0  0  0  0  0  0  0
   -3.5314   -0.0517    1.5603 O   0  0  0  0  0  0  0  0  0  0  0  0
   -3.7256   -0.2830    2.9676 C   0  0  0  0  0  0  0  0  0  0  0  0
   -4.9864    0.4533    3.4213 C   0  0  0  0  0  0  0  0  0  0  0  0
   -4.7045    1.8522    3.5341 O   0  0  0  0  0  0  0  0  0  0  0  0
   -5.8826    2.6128    3.7513 C   0  0  0  0  0  0  0  0  0  0  0  0
    0.0348    3.0551    1.8178 N   0  0  0  0  0  0  0  0  0  0  0  0
    1.2853    3.3899    1.4876 C   0  0  0  0  0  0  0  0  0  0  0  0
    2.1158    2.6762    0.7256 N   0  0  0  0  0  0  0  0  0  0  0  0
    1.6472    1.5131    0.2414 C   0  0  0  0  0  0  0  0  0  0  0  0
    2.4757    0.7319   -0.6119 N   0  0  0  0  0  0  0  0  0  0  0  0
    3.8725    0.8320   -0.8066 C   0  0  0  0  0  0  0  0  0  0  0  0
    4.7431    1.2769    0.1973 C   0  0  0  0  0  0  0  0  0  0  0  0
    6.1260    1.2941   -0.0020 C   0  0  0  0  0  0  0  0  0  0  0  0
    6.6633    0.8399   -1.2068 C   0  0  0  0  0  0  0  0  0  0  0  0
    5.8165    0.3601   -2.2058 C   0  0  0  0  0  0  0  0  0  0  0  0
    4.4327    0.3422   -1.9997 C   0  0  0  0  0  0  0  0  0  0  0  0
    6.3606   -0.1160   -3.4423 C   0  0  0  0  0  0  0  0  0  0  0  0
    6.8166   -0.5097   -4.4834 C   0  0  0  0  0  0  0  0  0  0  0  0
   -0.8683   -4.6373   -4.3189 H   0  0  0  0  0  0  0  0  0  0  0  0
   -1.4521   -4.7979   -2.6550 H   0  0  0  0  0  0  0  0  0  0  0  0
   -2.4924   -4.0529   -3.9077 H   0  0  0  0  0  0  0  0  0  0  0  0
   -1.3496   -1.0813   -2.4322 H   0  0  0  0  0  0  0  0  0  0  0  0
   -2.7350   -2.1362   -2.5970 H   0  0  0  0  0  0  0  0  0  0  0  0
   -0.4128   -2.7586   -0.6393 H   0  0  0  0  0  0  0  0  0  0  0  0
   -1.9376   -3.5726   -0.7603 H   0  0  0  0  0  0  0  0  0  0  0  0
    0.4225   -0.8275   -0.5229 H   0  0  0  0  0  0  0  0  0  0  0  0
   -2.3156    2.1638    2.2905 H   0  0  0  0  0  0  0  0  0  0  0  0
   -2.8670    0.0224    3.5781 H   0  0  0  0  0  0  0  0  0  0  0  0
   -3.8664   -1.3611    3.0929 H   0  0  0  0  0  0  0  0  0  0  0  0
   -5.7952    0.2993    2.6960 H   0  0  0  0  0  0  0  0  0  0  0  0
   -5.2975    0.0865    4.4054 H   0  0  0  0  0  0  0  0  0  0  0  0
   -6.3843    2.2965    4.6702 H   0  0  0  0  0  0  0  0  0  0  0  0
   -5.5999    3.6655    3.8515 H   0  0  0  0  0  0  0  0  0  0  0  0
   -6.5586    2.5129    2.8972 H   0  0  0  0  0  0  0  0  0  0  0  0
    1.6606    4.3303    1.8739 H   0  0  0  0  0  0  0  0  0  0  0  0
    1.9896    0.5811   -1.4916 H   0  0  0  0  0  0  0  0  0  0  0  0
    4.3530    1.6162    1.1563 H   0  0  0  0  0  0  0  0  0  0  0  0
    6.7794    1.6553    0.7881 H   0  0  0  0  0  0  0  0  0  0  0  0
    7.7400    0.8554   -1.3557 H   0  0  0  0  0  0  0  0  0  0  0  0
    3.7894   -0.0510   -2.7837 H   0  0  0  0  0  0  0  0  0  0  0  0
    7.2201   -0.8538   -5.4079 H   0  0  0  0  0  0  0  0  0  0  0  0
  1  2  1  0
  2  3  1  0
  3  4  1  0
  4  5  1  0
  5  6  1  0
  6  7  2  0
  7  8  1  0
  8  9  2  0
  9 10  1  0
 10 11  2  0
 11 12  1  0
 12 13  1  0
 13 14  1  0
 14 15  1  0
 15 16  1  0
  9 17  1  0
 17 18  2  0
 18 19  1  0
 19 20  2  0
 20 21  1  0
 21 22  1  0
 22 23  2  0
 23 24  1  0
 24 25  2  0
 25 26  1  0
 26 27  2  0
 26 28  1  0
 28 29  3  0
 11  6  1  0
 20  8  1  0
 27 22  1  0
  1 30  1  0
  1 31  1  0
  1 32  1  0
  3 33  1  0
  3 34  1  0
  4 35  1  0
  4 36  1  0
  7 37  1  0
 10 38  1  0
 13 39  1  0
 13 40  1  0
 14 41  1  0
 14 42  1  0
 16 43  1  0
 16 44  1  0
 16 45  1  0
 18 46  1  0
 21 47  1  0
 23 48  1  0
 24 49  1  0
 25 50  1  0
 27 51  1  0
 29 52  1  0
M  END
>  <energy_abs>  (43) 
61.0454903508267

>  <SMILES>  (43) 
COCCOc1cc2c(cc1OCCOC)ncnc2Nc3cccc(c3)C#C

>  <cluster_no>  (43) 
43

>  <fda_drugs_id>  (43) 
AAKJLRGGTJKAMG-UHFFFAOYSA-N

>  <initial_conformation_id>  (43) 
262

>  <minimize_method>  (43) 
MMFF

$$$$

     RDKit          3D

 52 54  0  0  0  0  0  0  0  0999 V2000
   -1.8950   -3.8207   -3.4429 C   0  0  0  0  0  0  0  0  0  0  0  0
   -2.0095   -2.7213   -2.5491 O   0  0  0  0  0  0  0  0  0  0  0  0
   -2.9850   -2.9728   -1.5291 C   0  0  0  0  0  0  0  0  0  0  0  0
   -3.0270   -1.7880   -0.5652 C   0  0  0  0  0  0  0  0  0  0  0  0
   -1.8447   -1.8256    0.2512 O   0  0  0  0  0  0  0  0  0  0  0  0
   -1.3305   -0.5745    0.4663 C   0  0  0  0  0  0  0  0  0  0  0  0
   -0.0598   -0.3376   -0.0524 C   0  0  0  0  0  0  0  0  0  0  0  0
    0.5672    0.9171    0.1231 C   0  0  0  0  0  0  0  0  0  0  0  0
   -0.0923    1.9103    0.8600 C   0  0  0  0  0  0  0  0  0  0  0  0
   -1.3523    1.6410    1.3891 C   0  0  0  0  0  0  0  0  0  0  0  0
   -1.9866    0.4073    1.2127 C   0  0  0  0  0  0  0  0  0  0  0  0
   -3.2120    0.0736    1.7234 O   0  0  0  0  0  0  0  0  0  0  0  0
   -3.8374    1.0045    2.6064 C   0  0  0  0  0  0  0  0  0  0  0  0
   -5.1378    0.3841    3.1169 C   0  0  0  0  0  0  0  0  0  0  0  0
   -5.8699    1.2773    3.9555 O   0  0  0  0  0  0  0  0  0  0  0  0
   -5.3989    1.2929    5.2969 C   0  0  0  0  0  0  0  0  0  0  0  0
    0.4411    3.1138    1.0821 N   0  0  0  0  0  0  0  0  0  0  0  0
    1.6558    3.3366    0.5691 C   0  0  0  0  0  0  0  0  0  0  0  0
    2.3785    2.4765   -0.1521 N   0  0  0  0  0  0  0  0  0  0  0  0
    1.8341    1.2693   -0.3861 C   0  0  0  0  0  0  0  0  0  0  0  0
    2.5424    0.3216   -1.1739 N   0  0  0  0  0  0  0  0  0  0  0  0
    3.8917    0.3481   -1.5938 C   0  0  0  0  0  0  0  0  0  0  0  0
    4.2631   -0.3992   -2.7239 C   0  0  0  0  0  0  0  0  0  0  0  0
    5.5937   -0.4590   -3.1474 C   0  0  0  0  0  0  0  0  0  0  0  0
    6.5819    0.2106   -2.4298 C   0  0  0  0  0  0  0  0  0  0  0  0
    6.2394    0.9272   -1.2835 C   0  0  0  0  0  0  0  0  0  0  0  0
    4.9049    0.9826   -0.8640 C   0  0  0  0  0  0  0  0  0  0  0  0
    7.2555    1.5976   -0.5305 C   0  0  0  0  0  0  0  0  0  0  0  0
    8.1080    2.1612    0.1001 C   0  0  0  0  0  0  0  0  0  0  0  0
   -1.1436   -3.5734   -4.1973 H   0  0  0  0  0  0  0  0  0  0  0  0
   -1.5695   -4.7177   -2.9076 H   0  0  0  0  0  0  0  0  0  0  0  0
   -2.8484   -4.0061   -3.9461 H   0  0  0  0  0  0  0  0  0  0  0  0
   -2.7162   -3.8894   -0.9916 H   0  0  0  0  0  0  0  0  0  0  0  0
   -3.9650   -3.0965   -2.0027 H   0  0  0  0  0  0  0  0  0  0  0  0
   -3.8964   -1.8876    0.0932 H   0  0  0  0  0  0  0  0  0  0  0  0
   -3.1036   -0.8536   -1.1369 H   0  0  0  0  0  0  0  0  0  0  0  0
    0.4341   -1.1408   -0.5939 H   0  0  0  0  0  0  0  0  0  0  0  0
   -1.8248    2.4401    1.9526 H   0  0  0  0  0  0  0  0  0  0  0  0
   -3.1779    1.2282    3.4529 H   0  0  0  0  0  0  0  0  0  0  0  0
   -4.0700    1.9388    2.0806 H   0  0  0  0  0  0  0  0  0  0  0  0
   -5.7767    0.1467    2.2583 H   0  0  0  0  0  0  0  0  0  0  0  0
   -4.9510   -0.5695    3.6263 H   0  0  0  0  0  0  0  0  0  0  0  0
   -5.4653    0.2940    5.7390 H   0  0  0  0  0  0  0  0  0  0  0  0
   -4.3699    1.6599    5.3474 H   0  0  0  0  0  0  0  0  0  0  0  0
   -6.0349    1.9699    5.8739 H   0  0  0  0  0  0  0  0  0  0  0  0
    2.0961    4.3105    0.7542 H   0  0  0  0  0  0  0  0  0  0  0  0
    1.9305   -0.0169   -1.9097 H   0  0  0  0  0  0  0  0  0  0  0  0
    3.5132   -0.9436   -3.2927 H   0  0  0  0  0  0  0  0  0  0  0  0
    5.8580   -1.0324   -4.0319 H   0  0  0  0  0  0  0  0  0  0  0  0
    7.6163    0.1613   -2.7605 H   0  0  0  0  0  0  0  0  0  0  0  0
    4.6633    1.5227    0.0475 H   0  0  0  0  0  0  0  0  0  0  0  0
    8.8627    2.6637    0.6597 H   0  0  0  0  0  0  0  0  0  0  0  0
  1  2  1  0
  2  3  1  0
  3  4  1  0
  4  5  1  0
  5  6  1  0
  6  7  2  0
  7  8  1  0
  8  9  2  0
  9 10  1  0
 10 11  2  0
 11 12  1  0
 12 13  1  0
 13 14  1  0
 14 15  1  0
 15 16  1  0
  9 17  1  0
 17 18  2  0
 18 19  1  0
 19 20  2  0
 20 21  1  0
 21 22  1  0
 22 23  2  0
 23 24  1  0
 24 25  2  0
 25 26  1  0
 26 27  2  0
 26 28  1  0
 28 29  3  0
 11  6  1  0
 20  8  1  0
 27 22  1  0
  1 30  1  0
  1 31  1  0
  1 32  1  0
  3 33  1  0
  3 34  1  0
  4 35  1  0
  4 36  1  0
  7 37  1  0
 10 38  1  0
 13 39  1  0
 13 40  1  0
 14 41  1  0
 14 42  1  0
 16 43  1  0
 16 44  1  0
 16 45  1  0
 18 46  1  0
 21 47  1  0
 23 48  1  0
 24 49  1  0
 25 50  1  0
 27 51  1  0
 29 52  1  0
M  END
>  <energy_abs>  (44) 
57.089358576012714

>  <SMILES>  (44) 
COCCOc1cc2c(cc1OCCOC)ncnc2Nc3cccc(c3)C#C

>  <cluster_no>  (44) 
44

>  <fda_drugs_id>  (44) 
AAKJLRGGTJKAMG-UHFFFAOYSA-N

>  <initial_conformation_id>  (44) 
261

>  <minimize_method>  (44) 
MMFF

$$$$

     RDKit          3D

 52 54  0  0  0  0  0  0  0  0999 V2000
   -1.7994   -3.9343   -3.5311 C   0  0  0  0  0  0  0  0  0  0  0  0
   -0.8135   -3.2613   -2.7589 O   0  0  0  0  0  0  0  0  0  0  0  0
   -1.3056   -2.8076   -1.4976 C   0  0  0  0  0  0  0  0  0  0  0  0
   -2.0251   -1.4640   -1.6235 C   0  0  0  0  0  0  0  0  0  0  0  0
   -2.4655   -0.9799   -0.3562 O   0  0  0  0  0  0  0  0  0  0  0  0
   -1.6021   -0.2811    0.4395 C   0  0  0  0  0  0  0  0  0  0  0  0
   -0.2832    0.0387    0.1151 C   0  0  0  0  0  0  0  0  0  0  0  0
    0.5555    0.7416    1.0264 C   0  0  0  0  0  0  0  0  0  0  0  0
    0.0584    1.1015    2.2857 C   0  0  0  0  0  0  0  0  0  0  0  0
   -1.2524    0.7809    2.5977 C   0  0  0  0  0  0  0  0  0  0  0  0
   -2.0844    0.1213    1.6890 C   0  0  0  0  0  0  0  0  0  0  0  0
   -3.3484   -0.1567    2.1436 O   0  0  0  0  0  0  0  0  0  0  0  0
   -4.3789    0.3968    1.3130 C   0  0  0  0  0  0  0  0  0  0  0  0
   -5.5218    0.8866    2.2067 C   0  0  0  0  0  0  0  0  0  0  0  0
   -5.1488    1.9744    3.0595 O   0  0  0  0  0  0  0  0  0  0  0  0
   -5.0176    3.2142    2.3804 C   0  0  0  0  0  0  0  0  0  0  0  0
    0.7939    1.7401    3.1995 N   0  0  0  0  0  0  0  0  0  0  0  0
    2.0565    2.0209    2.8656 C   0  0  0  0  0  0  0  0  0  0  0  0
    2.6447    1.7371    1.7016 N   0  0  0  0  0  0  0  0  0  0  0  0
    1.8959    1.1068    0.7790 C   0  0  0  0  0  0  0  0  0  0  0  0
    2.4594    0.8162   -0.4942 N   0  0  0  0  0  0  0  0  0  0  0  0
    3.8205    0.8296   -0.8775 C   0  0  0  0  0  0  0  0  0  0  0  0
    4.8617    0.5541    0.0169 C   0  0  0  0  0  0  0  0  0  0  0  0
    6.1914    0.5068   -0.4131 C   0  0  0  0  0  0  0  0  0  0  0  0
    6.4982    0.7091   -1.7566 C   0  0  0  0  0  0  0  0  0  0  0  0
    5.4732    0.9457   -2.6709 C   0  0  0  0  0  0  0  0  0  0  0  0
    4.1440    0.9923   -2.2346 C   0  0  0  0  0  0  0  0  0  0  0  0
    5.7782    1.1336   -4.0564 C   0  0  0  0  0  0  0  0  0  0  0  0
    6.0339    1.2912   -5.2190 C   0  0  0  0  0  0  0  0  0  0  0  0
   -2.6171   -3.2582   -3.7958 H   0  0  0  0  0  0  0  0  0  0  0  0
   -2.1865   -4.8023   -2.9885 H   0  0  0  0  0  0  0  0  0  0  0  0
   -1.3295   -4.2846   -4.4546 H   0  0  0  0  0  0  0  0  0  0  0  0
   -1.9520   -3.5605   -1.0299 H   0  0  0  0  0  0  0  0  0  0  0  0
   -0.4393   -2.7050   -0.8362 H   0  0  0  0  0  0  0  0  0  0  0  0
   -1.4393   -0.7230   -2.1799 H   0  0  0  0  0  0  0  0  0  0  0  0
   -2.9298   -1.6038   -2.2261 H   0  0  0  0  0  0  0  0  0  0  0  0
    0.1436   -0.2719   -0.8328 H   0  0  0  0  0  0  0  0  0  0  0  0
   -1.6478    1.0544    3.5739 H   0  0  0  0  0  0  0  0  0  0  0  0
   -4.0055    1.2182    0.6902 H   0  0  0  0  0  0  0  0  0  0  0  0
   -4.7576   -0.3988    0.6626 H   0  0  0  0  0  0  0  0  0  0  0  0
   -5.8310    0.0721    2.8707 H   0  0  0  0  0  0  0  0  0  0  0  0
   -6.3912    1.1734    1.6043 H   0  0  0  0  0  0  0  0  0  0  0  0
   -4.8321    3.9925    3.1261 H   0  0  0  0  0  0  0  0  0  0  0  0
   -5.9388    3.4615    1.8436 H   0  0  0  0  0  0  0  0  0  0  0  0
   -4.1695    3.1962    1.6915 H   0  0  0  0  0  0  0  0  0  0  0  0
    2.6599    2.5298    3.6094 H   0  0  0  0  0  0  0  0  0  0  0  0
    1.8720    1.2284   -1.2112 H   0  0  0  0  0  0  0  0  0  0  0  0
    4.6506    0.3654    1.0662 H   0  0  0  0  0  0  0  0  0  0  0  0
    6.9833    0.3038    0.3030 H   0  0  0  0  0  0  0  0  0  0  0  0
    7.5339    0.6690   -2.0843 H   0  0  0  0  0  0  0  0  0  0  0  0
    3.3567    1.1604   -2.9651 H   0  0  0  0  0  0  0  0  0  0  0  0
    6.2626    1.4306   -6.2498 H   0  0  0  0  0  0  0  0  0  0  0  0
  1  2  1  0
  2  3  1  0
  3  4  1  0
  4  5  1  0
  5  6  1  0
  6  7  2  0
  7  8  1  0
  8  9  2  0
  9 10  1  0
 10 11  2  0
 11 12  1  0
 12 13  1  0
 13 14  1  0
 14 15  1  0
 15 16  1  0
  9 17  1  0
 17 18  2  0
 18 19  1  0
 19 20  2  0
 20 21  1  0
 21 22  1  0
 22 23  2  0
 23 24  1  0
 24 25  2  0
 25 26  1  0
 26 27  2  0
 26 28  1  0
 28 29  3  0
 11  6  1  0
 20  8  1  0
 27 22  1  0
  1 30  1  0
  1 31  1  0
  1 32  1  0
  3 33  1  0
  3 34  1  0
  4 35  1  0
  4 36  1  0
  7 37  1  0
 10 38  1  0
 13 39  1  0
 13 40  1  0
 14 41  1  0
 14 42  1  0
 16 43  1  0
 16 44  1  0
 16 45  1  0
 18 46  1  0
 21 47  1  0
 23 48  1  0
 24 49  1  0
 25 50  1  0
 27 51  1  0
 29 52  1  0
M  END
>  <energy_abs>  (45) 
62.1393135248891

>  <SMILES>  (45) 
COCCOc1cc2c(cc1OCCOC)ncnc2Nc3cccc(c3)C#C

>  <cluster_no>  (45) 
45

>  <fda_drugs_id>  (45) 
AAKJLRGGTJKAMG-UHFFFAOYSA-N

>  <initial_conformation_id>  (45) 
260

>  <minimize_method>  (45) 
MMFF

$$$$

     RDKit          3D

 52 54  0  0  0  0  0  0  0  0999 V2000
   -3.6345   -4.3311   -3.2649 C   0  0  0  0  0  0  0  0  0  0  0  0
   -2.6227   -3.4185   -2.8562 O   0  0  0  0  0  0  0  0  0  0  0  0
   -3.0196   -2.6762   -1.7030 C   0  0  0  0  0  0  0  0  0  0  0  0
   -1.9056   -1.7065   -1.3218 C   0  0  0  0  0  0  0  0  0  0  0  0
   -2.3373   -0.9396   -0.1968 O   0  0  0  0  0  0  0  0  0  0  0  0
   -1.4136   -0.1317    0.4084 C   0  0  0  0  0  0  0  0  0  0  0  0
   -0.1640    0.1920   -0.1220 C   0  0  0  0  0  0  0  0  0  0  0  0
    0.7486    1.0202    0.5905 C   0  0  0  0  0  0  0  0  0  0  0  0
    0.3987    1.4996    1.8606 C   0  0  0  0  0  0  0  0  0  0  0  0
   -0.8485    1.1806    2.3717 C   0  0  0  0  0  0  0  0  0  0  0  0
   -1.7594    0.4040    1.6523 C   0  0  0  0  0  0  0  0  0  0  0  0
   -2.9506    0.1494    2.2810 O   0  0  0  0  0  0  0  0  0  0  0  0
   -4.0900    0.6058    1.5370 C   0  0  0  0  0  0  0  0  0  0  0  0
   -4.9358    1.5287    2.4240 C   0  0  0  0  0  0  0  0  0  0  0  0
   -5.4425    0.9034    3.6081 O   0  0  0  0  0  0  0  0  0  0  0  0
   -6.4737   -0.0447    3.3586 C   0  0  0  0  0  0  0  0  0  0  0  0
    1.2136    2.2560    2.6001 N   0  0  0  0  0  0  0  0  0  0  0  0
    2.4082    2.5426    2.0750 C   0  0  0  0  0  0  0  0  0  0  0  0
    2.8533    2.1596    0.8761 N   0  0  0  0  0  0  0  0  0  0  0  0
    2.0257    1.4052    0.1304 C   0  0  0  0  0  0  0  0  0  0  0  0
    2.4355    1.0038   -1.1719 N   0  0  0  0  0  0  0  0  0  0  0  0
    3.7362    1.0366   -1.7269 C   0  0  0  0  0  0  0  0  0  0  0  0
    3.8766    1.0877   -3.1223 C   0  0  0  0  0  0  0  0  0  0  0  0
    5.1383    1.0549   -3.7229 C   0  0  0  0  0  0  0  0  0  0  0  0
    6.2817    0.9414   -2.9360 C   0  0  0  0  0  0  0  0  0  0  0  0
    6.1612    0.8494   -1.5503 C   0  0  0  0  0  0  0  0  0  0  0  0
    4.8955    0.8876   -0.9537 C   0  0  0  0  0  0  0  0  0  0  0  0
    7.3316    0.7075   -0.7397 C   0  0  0  0  0  0  0  0  0  0  0  0
    8.3120    0.5871   -0.0561 C   0  0  0  0  0  0  0  0  0  0  0  0
   -3.2831   -4.8555   -4.1573 H   0  0  0  0  0  0  0  0  0  0  0  0
   -3.8253   -5.0699   -2.4797 H   0  0  0  0  0  0  0  0  0  0  0  0
   -4.5577   -3.7967   -3.5147 H   0  0  0  0  0  0  0  0  0  0  0  0
   -3.9413   -2.1201   -1.9102 H   0  0  0  0  0  0  0  0  0  0  0  0
   -3.2231   -3.3565   -0.8676 H   0  0  0  0  0  0  0  0  0  0  0  0
   -0.9988   -2.2802   -1.0866 H   0  0  0  0  0  0  0  0  0  0  0  0
   -1.6938   -1.0482   -2.1752 H   0  0  0  0  0  0  0  0  0  0  0  0
    0.1407   -0.2016   -1.0864 H   0  0  0  0  0  0  0  0  0  0  0  0
   -1.1273    1.5484    3.3570 H   0  0  0  0  0  0  0  0  0  0  0  0
   -3.8056    1.1665    0.6368 H   0  0  0  0  0  0  0  0  0  0  0  0
   -4.6607   -0.2766    1.2285 H   0  0  0  0  0  0  0  0  0  0  0  0
   -5.7682    1.9549    1.8539 H   0  0  0  0  0  0  0  0  0  0  0  0
   -4.3081    2.3619    2.7648 H   0  0  0  0  0  0  0  0  0  0  0  0
   -7.2718    0.3940    2.7462 H   0  0  0  0  0  0  0  0  0  0  0  0
   -6.9027   -0.3415    4.3188 H   0  0  0  0  0  0  0  0  0  0  0  0
   -6.0732   -0.9438    2.8741 H   0  0  0  0  0  0  0  0  0  0  0  0
    3.0774    3.1474    2.6780 H   0  0  0  0  0  0  0  0  0  0  0  0
    1.7440    1.3264   -1.8379 H   0  0  0  0  0  0  0  0  0  0  0  0
    2.9990    1.1589   -3.7611 H   0  0  0  0  0  0  0  0  0  0  0  0
    5.2258    1.1188   -4.8045 H   0  0  0  0  0  0  0  0  0  0  0  0
    7.2610    0.9138   -3.4075 H   0  0  0  0  0  0  0  0  0  0  0  0
    4.8199    0.7980    0.1261 H   0  0  0  0  0  0  0  0  0  0  0  0
    9.1754    0.4689    0.5551 H   0  0  0  0  0  0  0  0  0  0  0  0
  1  2  1  0
  2  3  1  0
  3  4  1  0
  4  5  1  0
  5  6  1  0
  6  7  2  0
  7  8  1  0
  8  9  2  0
  9 10  1  0
 10 11  2  0
 11 12  1  0
 12 13  1  0
 13 14  1  0
 14 15  1  0
 15 16  1  0
  9 17  1  0
 17 18  2  0
 18 19  1  0
 19 20  2  0
 20 21  1  0
 21 22  1  0
 22 23  2  0
 23 24  1  0
 24 25  2  0
 25 26  1  0
 26 27  2  0
 26 28  1  0
 28 29  3  0
 11  6  1  0
 20  8  1  0
 27 22  1  0
  1 30  1  0
  1 31  1  0
  1 32  1  0
  3 33  1  0
  3 34  1  0
  4 35  1  0
  4 36  1  0
  7 37  1  0
 10 38  1  0
 13 39  1  0
 13 40  1  0
 14 41  1  0
 14 42  1  0
 16 43  1  0
 16 44  1  0
 16 45  1  0
 18 46  1  0
 21 47  1  0
 23 48  1  0
 24 49  1  0
 25 50  1  0
 27 51  1  0
 29 52  1  0
M  END
>  <energy_abs>  (46) 
59.75125538465703

>  <SMILES>  (46) 
COCCOc1cc2c(cc1OCCOC)ncnc2Nc3cccc(c3)C#C

>  <cluster_no>  (46) 
46

>  <fda_drugs_id>  (46) 
AAKJLRGGTJKAMG-UHFFFAOYSA-N

>  <initial_conformation_id>  (46) 
259

>  <minimize_method>  (46) 
MMFF

$$$$

     RDKit          3D

 52 54  0  0  0  0  0  0  0  0999 V2000
   -3.0981   -4.0462   -3.2109 C   0  0  0  0  0  0  0  0  0  0  0  0
   -1.9724   -3.1764   -3.2360 O   0  0  0  0  0  0  0  0  0  0  0  0
   -2.2782   -1.8507   -2.8025 C   0  0  0  0  0  0  0  0  0  0  0  0
   -2.3834   -1.7421   -1.2808 C   0  0  0  0  0  0  0  0  0  0  0  0
   -2.5169   -0.3612   -0.9157 O   0  0  0  0  0  0  0  0  0  0  0  0
   -1.5784    0.0250    0.0079 C   0  0  0  0  0  0  0  0  0  0  0  0
   -0.2285    0.0700   -0.3398 C   0  0  0  0  0  0  0  0  0  0  0  0
    0.7399    0.5056    0.5954 C   0  0  0  0  0  0  0  0  0  0  0  0
    0.3217    0.9328    1.8637 C   0  0  0  0  0  0  0  0  0  0  0  0
   -1.0338    0.8993    2.1794 C   0  0  0  0  0  0  0  0  0  0  0  0
   -1.9975    0.4543    1.2696 C   0  0  0  0  0  0  0  0  0  0  0  0
   -3.3436    0.3897    1.5128 O   0  0  0  0  0  0  0  0  0  0  0  0
   -3.8134    0.8721    2.7704 C   0  0  0  0  0  0  0  0  0  0  0  0
   -5.3360    0.7329    2.8046 C   0  0  0  0  0  0  0  0  0  0  0  0
   -5.8842    1.1181    4.0642 O   0  0  0  0  0  0  0  0  0  0  0  0
   -6.0449    2.5235    4.1932 C   0  0  0  0  0  0  0  0  0  0  0  0
    1.1742    1.3775    2.7899 N   0  0  0  0  0  0  0  0  0  0  0  0
    2.4679    1.4073    2.4529 C   0  0  0  0  0  0  0  0  0  0  0  0
    2.9871    1.0214    1.2850 N   0  0  0  0  0  0  0  0  0  0  0  0
    2.1287    0.5608    0.3579 C   0  0  0  0  0  0  0  0  0  0  0  0
    2.6296    0.0959   -0.8893 N   0  0  0  0  0  0  0  0  0  0  0  0
    3.9226    0.2650   -1.4362 C   0  0  0  0  0  0  0  0  0  0  0  0
    4.3828   -0.6602   -2.3887 C   0  0  0  0  0  0  0  0  0  0  0  0
    5.6276   -0.5064   -3.0042 C   0  0  0  0  0  0  0  0  0  0  0  0
    6.4236    0.5938   -2.6944 C   0  0  0  0  0  0  0  0  0  0  0  0
    5.9686    1.5435   -1.7780 C   0  0  0  0  0  0  0  0  0  0  0  0
    4.7208    1.3840   -1.1649 C   0  0  0  0  0  0  0  0  0  0  0  0
    6.7765    2.6849   -1.4698 C   0  0  0  0  0  0  0  0  0  0  0  0
    7.4564    3.6403   -1.2066 C   0  0  0  0  0  0  0  0  0  0  0  0
   -3.9109   -3.6417   -3.8242 H   0  0  0  0  0  0  0  0  0  0  0  0
   -2.7934   -5.0110   -3.6306 H   0  0  0  0  0  0  0  0  0  0  0  0
   -3.4407   -4.2123   -2.1826 H   0  0  0  0  0  0  0  0  0  0  0  0
   -3.1872   -1.4806   -3.2917 H   0  0  0  0  0  0  0  0  0  0  0  0
   -1.4656   -1.2032   -3.1505 H   0  0  0  0  0  0  0  0  0  0  0  0
   -1.5336   -2.2468   -0.8027 H   0  0  0  0  0  0  0  0  0  0  0  0
   -3.2829   -2.2620   -0.9290 H   0  0  0  0  0  0  0  0  0  0  0  0
    0.0677   -0.2106   -1.3473 H   0  0  0  0  0  0  0  0  0  0  0  0
   -1.3128    1.2377    3.1735 H   0  0  0  0  0  0  0  0  0  0  0  0
   -3.3834    0.2891    3.5939 H   0  0  0  0  0  0  0  0  0  0  0  0
   -3.5365    1.9243    2.8985 H   0  0  0  0  0  0  0  0  0  0  0  0
   -5.8055    1.2919    1.9849 H   0  0  0  0  0  0  0  0  0  0  0  0
   -5.6004   -0.3187    2.6430 H   0  0  0  0  0  0  0  0  0  0  0  0
   -6.7097    2.9082    3.4139 H   0  0  0  0  0  0  0  0  0  0  0  0
   -6.4992    2.7284    5.1649 H   0  0  0  0  0  0  0  0  0  0  0  0
   -5.0786    3.0316    4.1516 H   0  0  0  0  0  0  0  0  0  0  0  0
    3.1623    1.7760    3.2005 H   0  0  0  0  0  0  0  0  0  0  0  0
    2.2844   -0.8450   -1.0496 H   0  0  0  0  0  0  0  0  0  0  0  0
    3.7752   -1.5202   -2.6594 H   0  0  0  0  0  0  0  0  0  0  0  0
    5.9721   -1.2414   -3.7280 H   0  0  0  0  0  0  0  0  0  0  0  0
    7.3911    0.7113   -3.1757 H   0  0  0  0  0  0  0  0  0  0  0  0
    4.3723    2.1490   -0.4740 H   0  0  0  0  0  0  0  0  0  0  0  0
    8.0586    4.4874   -0.9696 H   0  0  0  0  0  0  0  0  0  0  0  0
  1  2  1  0
  2  3  1  0
  3  4  1  0
  4  5  1  0
  5  6  1  0
  6  7  2  0
  7  8  1  0
  8  9  2  0
  9 10  1  0
 10 11  2  0
 11 12  1  0
 12 13  1  0
 13 14  1  0
 14 15  1  0
 15 16  1  0
  9 17  1  0
 17 18  2  0
 18 19  1  0
 19 20  2  0
 20 21  1  0
 21 22  1  0
 22 23  2  0
 23 24  1  0
 24 25  2  0
 25 26  1  0
 26 27  2  0
 26 28  1  0
 28 29  3  0
 11  6  1  0
 20  8  1  0
 27 22  1  0
  1 30  1  0
  1 31  1  0
  1 32  1  0
  3 33  1  0
  3 34  1  0
  4 35  1  0
  4 36  1  0
  7 37  1  0
 10 38  1  0
 13 39  1  0
 13 40  1  0
 14 41  1  0
 14 42  1  0
 16 43  1  0
 16 44  1  0
 16 45  1  0
 18 46  1  0
 21 47  1  0
 23 48  1  0
 24 49  1  0
 25 50  1  0
 27 51  1  0
 29 52  1  0
M  END
>  <energy_abs>  (47) 
59.923171324580416

>  <SMILES>  (47) 
COCCOc1cc2c(cc1OCCOC)ncnc2Nc3cccc(c3)C#C

>  <cluster_no>  (47) 
47

>  <fda_drugs_id>  (47) 
AAKJLRGGTJKAMG-UHFFFAOYSA-N

>  <initial_conformation_id>  (47) 
258

>  <minimize_method>  (47) 
MMFF

$$$$

     RDKit          3D

 52 54  0  0  0  0  0  0  0  0999 V2000
   -3.4338   -3.2564   -4.3496 C   0  0  0  0  0  0  0  0  0  0  0  0
   -2.4221   -2.5737   -3.6200 O   0  0  0  0  0  0  0  0  0  0  0  0
   -2.8890   -2.1698   -2.3331 C   0  0  0  0  0  0  0  0  0  0  0  0
   -1.7688   -1.4416   -1.5973 C   0  0  0  0  0  0  0  0  0  0  0  0
   -2.2492   -1.0510   -0.3136 O   0  0  0  0  0  0  0  0  0  0  0  0
   -1.3784   -0.4203    0.5369 C   0  0  0  0  0  0  0  0  0  0  0  0
   -0.0670   -0.0682    0.2147 C   0  0  0  0  0  0  0  0  0  0  0  0
    0.7653    0.5922    1.1552 C   0  0  0  0  0  0  0  0  0  0  0  0
    0.2528    0.9113    2.4179 C   0  0  0  0  0  0  0  0  0  0  0  0
   -1.0537    0.5540    2.7265 C   0  0  0  0  0  0  0  0  0  0  0  0
   -1.8783   -0.1054    1.8102 C   0  0  0  0  0  0  0  0  0  0  0  0
   -3.1717   -0.4898    2.0536 O   0  0  0  0  0  0  0  0  0  0  0  0
   -3.8420   -0.0379    3.2335 C   0  0  0  0  0  0  0  0  0  0  0  0
   -4.3272    1.4112    3.1110 C   0  0  0  0  0  0  0  0  0  0  0  0
   -5.5352    1.5399    2.3519 O   0  0  0  0  0  0  0  0  0  0  0  0
   -5.3560    1.3105    0.9599 C   0  0  0  0  0  0  0  0  0  0  0  0
    0.9669    1.5506    3.3472 N   0  0  0  0  0  0  0  0  0  0  0  0
    2.2170    1.8901    3.0171 C   0  0  0  0  0  0  0  0  0  0  0  0
    2.8194    1.6395    1.8530 N   0  0  0  0  0  0  0  0  0  0  0  0
    2.1016    0.9820    0.9251 C   0  0  0  0  0  0  0  0  0  0  0  0
    2.7066    0.6494   -0.3181 N   0  0  0  0  0  0  0  0  0  0  0  0
    3.9055    1.1508   -0.8756 C   0  0  0  0  0  0  0  0  0  0  0  0
    4.3827    2.4403   -0.6108 C   0  0  0  0  0  0  0  0  0  0  0  0
    5.5347    2.9276   -1.2357 C   0  0  0  0  0  0  0  0  0  0  0  0
    6.2151    2.1379   -2.1596 C   0  0  0  0  0  0  0  0  0  0  0  0
    5.7353    0.8658   -2.4664 C   0  0  0  0  0  0  0  0  0  0  0  0
    4.5819    0.3828   -1.8376 C   0  0  0  0  0  0  0  0  0  0  0  0
    6.4171    0.0561   -3.4295 C   0  0  0  0  0  0  0  0  0  0  0  0
    6.9893   -0.6232   -4.2377 C   0  0  0  0  0  0  0  0  0  0  0  0
   -4.2962   -2.6028   -4.5119 H   0  0  0  0  0  0  0  0  0  0  0  0
   -3.7416   -4.1634   -3.8204 H   0  0  0  0  0  0  0  0  0  0  0  0
   -3.0237   -3.5415   -5.3221 H   0  0  0  0  0  0  0  0  0  0  0  0
   -3.7571   -1.5078   -2.4381 H   0  0  0  0  0  0  0  0  0  0  0  0
   -3.2052   -3.0470   -1.7556 H   0  0  0  0  0  0  0  0  0  0  0  0
   -0.9071   -2.1141   -1.5023 H   0  0  0  0  0  0  0  0  0  0  0  0
   -1.4689   -0.5628   -2.1812 H   0  0  0  0  0  0  0  0  0  0  0  0
    0.3310   -0.2764   -0.7731 H   0  0  0  0  0  0  0  0  0  0  0  0
   -1.4050    0.8129    3.7197 H   0  0  0  0  0  0  0  0  0  0  0  0
   -4.7113   -0.6938    3.3581 H   0  0  0  0  0  0  0  0  0  0  0  0
   -3.2160   -0.1864    4.1194 H   0  0  0  0  0  0  0  0  0  0  0  0
   -3.5654    2.0758    2.6904 H   0  0  0  0  0  0  0  0  0  0  0  0
   -4.5677    1.7781    4.1144 H   0  0  0  0  0  0  0  0  0  0  0  0
   -6.2623    1.6395    0.4437 H   0  0  0  0  0  0  0  0  0  0  0  0
   -4.5089    1.8827    0.5700 H   0  0  0  0  0  0  0  0  0  0  0  0
   -5.2258    0.2442    0.7588 H   0  0  0  0  0  0  0  0  0  0  0  0
    2.7979    2.4165    3.7666 H   0  0  0  0  0  0  0  0  0  0  0  0
    2.6257   -0.3522   -0.4613 H   0  0  0  0  0  0  0  0  0  0  0  0
    3.8581    3.0894    0.0853 H   0  0  0  0  0  0  0  0  0  0  0  0
    5.8927    3.9272   -1.0040 H   0  0  0  0  0  0  0  0  0  0  0  0
    7.1090    2.5235   -2.6430 H   0  0  0  0  0  0  0  0  0  0  0  0
    4.2138   -0.6053   -2.1020 H   0  0  0  0  0  0  0  0  0  0  0  0
    7.4980   -1.2243   -4.9548 H   0  0  0  0  0  0  0  0  0  0  0  0
  1  2  1  0
  2  3  1  0
  3  4  1  0
  4  5  1  0
  5  6  1  0
  6  7  2  0
  7  8  1  0
  8  9  2  0
  9 10  1  0
 10 11  2  0
 11 12  1  0
 12 13  1  0
 13 14  1  0
 14 15  1  0
 15 16  1  0
  9 17  1  0
 17 18  2  0
 18 19  1  0
 19 20  2  0
 20 21  1  0
 21 22  1  0
 22 23  2  0
 23 24  1  0
 24 25  2  0
 25 26  1  0
 26 27  2  0
 26 28  1  0
 28 29  3  0
 11  6  1  0
 20  8  1  0
 27 22  1  0
  1 30  1  0
  1 31  1  0
  1 32  1  0
  3 33  1  0
  3 34  1  0
  4 35  1  0
  4 36  1  0
  7 37  1  0
 10 38  1  0
 13 39  1  0
 13 40  1  0
 14 41  1  0
 14 42  1  0
 16 43  1  0
 16 44  1  0
 16 45  1  0
 18 46  1  0
 21 47  1  0
 23 48  1  0
 24 49  1  0
 25 50  1  0
 27 51  1  0
 29 52  1  0
M  END
>  <energy_abs>  (48) 
58.59881257725961

>  <SMILES>  (48) 
COCCOc1cc2c(cc1OCCOC)ncnc2Nc3cccc(c3)C#C

>  <cluster_no>  (48) 
48

>  <fda_drugs_id>  (48) 
AAKJLRGGTJKAMG-UHFFFAOYSA-N

>  <initial_conformation_id>  (48) 
257

>  <minimize_method>  (48) 
MMFF

$$$$

     RDKit          3D

 52 54  0  0  0  0  0  0  0  0999 V2000
   -4.2214   -1.9648   -2.6027 C   0  0  0  0  0  0  0  0  0  0  0  0
   -3.3060   -2.9270   -3.1129 O   0  0  0  0  0  0  0  0  0  0  0  0
   -2.4883   -3.5266   -2.1011 C   0  0  0  0  0  0  0  0  0  0  0  0
   -1.4557   -2.5623   -1.5097 C   0  0  0  0  0  0  0  0  0  0  0  0
   -2.0797   -1.7972   -0.4743 O   0  0  0  0  0  0  0  0  0  0  0  0
   -1.3760   -0.7512    0.0632 C   0  0  0  0  0  0  0  0  0  0  0  0
   -0.0049   -0.5528   -0.1042 C   0  0  0  0  0  0  0  0  0  0  0  0
    0.6524    0.5497    0.4999 C   0  0  0  0  0  0  0  0  0  0  0  0
   -0.0919    1.4567    1.2632 C   0  0  0  0  0  0  0  0  0  0  0  0
   -1.4543    1.2416    1.4280 C   0  0  0  0  0  0  0  0  0  0  0  0
   -2.1104    0.1524    0.8468 C   0  0  0  0  0  0  0  0  0  0  0  0
   -3.4489   -0.1187    0.9740 O   0  0  0  0  0  0  0  0  0  0  0  0
   -4.2776    0.7676    1.7243 C   0  0  0  0  0  0  0  0  0  0  0  0
   -4.2525    0.4276    3.2154 C   0  0  0  0  0  0  0  0  0  0  0  0
   -5.0997    1.2910    3.9739 O   0  0  0  0  0  0  0  0  0  0  0  0
   -4.4770    2.5241    4.3101 C   0  0  0  0  0  0  0  0  0  0  0  0
    0.4515    2.5266    1.8481 N   0  0  0  0  0  0  0  0  0  0  0  0
    1.7628    2.7112    1.6643 C   0  0  0  0  0  0  0  0  0  0  0  0
    2.5786    1.9181    0.9671 N   0  0  0  0  0  0  0  0  0  0  0  0
    2.0300    0.8333    0.3923 C   0  0  0  0  0  0  0  0  0  0  0  0
    2.8613   -0.0676   -0.3283 N   0  0  0  0  0  0  0  0  0  0  0  0
    4.1769    0.1440   -0.8022 C   0  0  0  0  0  0  0  0  0  0  0  0
    5.0033   -0.9675   -1.0343 C   0  0  0  0  0  0  0  0  0  0  0  0
    6.2876   -0.8152   -1.5645 C   0  0  0  0  0  0  0  0  0  0  0  0
    6.7577    0.4541   -1.8938 C   0  0  0  0  0  0  0  0  0  0  0  0
    5.9379    1.5662   -1.7067 C   0  0  0  0  0  0  0  0  0  0  0  0
    4.6524    1.4072   -1.1769 C   0  0  0  0  0  0  0  0  0  0  0  0
    6.4087    2.8694   -2.0653 C   0  0  0  0  0  0  0  0  0  0  0  0
    6.8019    3.9642   -2.3646 C   0  0  0  0  0  0  0  0  0  0  0  0
   -3.7000   -1.0421   -2.3348 H   0  0  0  0  0  0  0  0  0  0  0  0
   -4.7703   -2.3596   -1.7436 H   0  0  0  0  0  0  0  0  0  0  0  0
   -4.9382   -1.7257   -3.3924 H   0  0  0  0  0  0  0  0  0  0  0  0
   -3.1275   -3.9630   -1.3256 H   0  0  0  0  0  0  0  0  0  0  0  0
   -1.9553   -4.3444   -2.5972 H   0  0  0  0  0  0  0  0  0  0  0  0
   -0.6421   -3.1485   -1.0669 H   0  0  0  0  0  0  0  0  0  0  0  0
   -1.0740   -1.9014   -2.2964 H   0  0  0  0  0  0  0  0  0  0  0  0
    0.5793   -1.2397   -0.7080 H   0  0  0  0  0  0  0  0  0  0  0  0
   -1.9877    1.9652    2.0352 H   0  0  0  0  0  0  0  0  0  0  0  0
   -4.0587    1.8196    1.5119 H   0  0  0  0  0  0  0  0  0  0  0  0
   -5.3029    0.6251    1.3607 H   0  0  0  0  0  0  0  0  0  0  0  0
   -4.6265   -0.5943    3.3469 H   0  0  0  0  0  0  0  0  0  0  0  0
   -3.2356    0.4273    3.6241 H   0  0  0  0  0  0  0  0  0  0  0  0
   -4.2274    3.0956    3.4112 H   0  0  0  0  0  0  0  0  0  0  0  0
   -5.1807    3.1105    4.9078 H   0  0  0  0  0  0  0  0  0  0  0  0
   -3.5763    2.3488    4.9080 H   0  0  0  0  0  0  0  0  0  0  0  0
    2.2069    3.5854    2.1282 H   0  0  0  0  0  0  0  0  0  0  0  0
    2.7567   -0.9955    0.0688 H   0  0  0  0  0  0  0  0  0  0  0  0
    4.6560   -1.9704   -0.7994 H   0  0  0  0  0  0  0  0  0  0  0  0
    6.9166   -1.6864   -1.7265 H   0  0  0  0  0  0  0  0  0  0  0  0
    7.7559    0.5692   -2.3096 H   0  0  0  0  0  0  0  0  0  0  0  0
    4.0197    2.2834   -1.0621 H   0  0  0  0  0  0  0  0  0  0  0  0
    7.1495    4.9365   -2.6275 H   0  0  0  0  0  0  0  0  0  0  0  0
  1  2  1  0
  2  3  1  0
  3  4  1  0
  4  5  1  0
  5  6  1  0
  6  7  2  0
  7  8  1  0
  8  9  2  0
  9 10  1  0
 10 11  2  0
 11 12  1  0
 12 13  1  0
 13 14  1  0
 14 15  1  0
 15 16  1  0
  9 17  1  0
 17 18  2  0
 18 19  1  0
 19 20  2  0
 20 21  1  0
 21 22  1  0
 22 23  2  0
 23 24  1  0
 24 25  2  0
 25 26  1  0
 26 27  2  0
 26 28  1  0
 28 29  3  0
 11  6  1  0
 20  8  1  0
 27 22  1  0
  1 30  1  0
  1 31  1  0
  1 32  1  0
  3 33  1  0
  3 34  1  0
  4 35  1  0
  4 36  1  0
  7 37  1  0
 10 38  1  0
 13 39  1  0
 13 40  1  0
 14 41  1  0
 14 42  1  0
 16 43  1  0
 16 44  1  0
 16 45  1  0
 18 46  1  0
 21 47  1  0
 23 48  1  0
 24 49  1  0
 25 50  1  0
 27 51  1  0
 29 52  1  0
M  END
>  <energy_abs>  (49) 
60.42159281306508

>  <SMILES>  (49) 
COCCOc1cc2c(cc1OCCOC)ncnc2Nc3cccc(c3)C#C

>  <cluster_no>  (49) 
49

>  <fda_drugs_id>  (49) 
AAKJLRGGTJKAMG-UHFFFAOYSA-N

>  <initial_conformation_id>  (49) 
256

>  <minimize_method>  (49) 
MMFF

$$$$

     RDKit          3D

 52 54  0  0  0  0  0  0  0  0999 V2000
   -1.9916   -4.3183   -3.6269 C   0  0  0  0  0  0  0  0  0  0  0  0
   -1.1272   -3.2376   -3.2997 O   0  0  0  0  0  0  0  0  0  0  0  0
   -1.8006   -2.1677   -2.6351 C   0  0  0  0  0  0  0  0  0  0  0  0
   -1.9595   -2.4409   -1.1395 C   0  0  0  0  0  0  0  0  0  0  0  0
   -2.5129   -1.3113   -0.4679 O   0  0  0  0  0  0  0  0  0  0  0  0
   -1.6671   -0.4219    0.1423 C   0  0  0  0  0  0  0  0  0  0  0  0
   -0.2965   -0.3314   -0.1046 C   0  0  0  0  0  0  0  0  0  0  0  0
    0.5078    0.6265    0.5657 C   0  0  0  0  0  0  0  0  0  0  0  0
   -0.0903    1.5081    1.4734 C   0  0  0  0  0  0  0  0  0  0  0  0
   -1.4577    1.4167    1.7007 C   0  0  0  0  0  0  0  0  0  0  0  0
   -2.2582    0.4740    1.0469 C   0  0  0  0  0  0  0  0  0  0  0  0
   -3.6088    0.3283    1.2375 O   0  0  0  0  0  0  0  0  0  0  0  0
   -4.3241    1.3387    1.9455 C   0  0  0  0  0  0  0  0  0  0  0  0
   -4.4223    1.0030    3.4309 C   0  0  0  0  0  0  0  0  0  0  0  0
   -5.1314    2.0436    4.1028 O   0  0  0  0  0  0  0  0  0  0  0  0
   -5.2645    1.7729    5.4920 C   0  0  0  0  0  0  0  0  0  0  0  0
    0.5985    2.4423    2.1335 N   0  0  0  0  0  0  0  0  0  0  0  0
    1.9085    2.5168    1.8783 C   0  0  0  0  0  0  0  0  0  0  0  0
    2.5924    1.7370    1.0387 N   0  0  0  0  0  0  0  0  0  0  0  0
    1.8983    0.7872    0.3875 C   0  0  0  0  0  0  0  0  0  0  0  0
    2.5815   -0.0933   -0.4948 N   0  0  0  0  0  0  0  0  0  0  0  0
    3.8791    0.0361   -1.0411 C   0  0  0  0  0  0  0  0  0  0  0  0
    4.5414   -1.1165   -1.4940 C   0  0  0  0  0  0  0  0  0  0  0  0
    5.7966   -1.0375   -2.1034 C   0  0  0  0  0  0  0  0  0  0  0  0
    6.4000    0.2032   -2.2936 C   0  0  0  0  0  0  0  0  0  0  0  0
    5.7417    1.3628   -1.8855 C   0  0  0  0  0  0  0  0  0  0  0  0
    4.4847    1.2771   -1.2759 C   0  0  0  0  0  0  0  0  0  0  0  0
    6.3472    2.6416   -2.1015 C   0  0  0  0  0  0  0  0  0  0  0  0
    6.8535    3.7152   -2.2830 C   0  0  0  0  0  0  0  0  0  0  0  0
   -1.4068   -5.0741   -4.1581 H   0  0  0  0  0  0  0  0  0  0  0  0
   -2.4055   -4.7754   -2.7244 H   0  0  0  0  0  0  0  0  0  0  0  0
   -2.7983   -3.9795   -4.2839 H   0  0  0  0  0  0  0  0  0  0  0  0
   -2.7700   -1.9587   -3.1044 H   0  0  0  0  0  0  0  0  0  0  0  0
   -1.1963   -1.2670   -2.7856 H   0  0  0  0  0  0  0  0  0  0  0  0
   -2.6738   -3.2608   -1.0028 H   0  0  0  0  0  0  0  0  0  0  0  0
   -1.0316   -2.8028   -0.6799 H   0  0  0  0  0  0  0  0  0  0  0  0
    0.1736   -0.9763   -0.8400 H   0  0  0  0  0  0  0  0  0  0  0  0
   -1.8791    2.1136    2.4189 H   0  0  0  0  0  0  0  0  0  0  0  0
   -3.9341    2.3477    1.7653 H   0  0  0  0  0  0  0  0  0  0  0  0
   -5.3391    1.3587    1.5296 H   0  0  0  0  0  0  0  0  0  0  0  0
   -4.9461    0.0479    3.5588 H   0  0  0  0  0  0  0  0  0  0  0  0
   -3.4242    0.8929    3.8693 H   0  0  0  0  0  0  0  0  0  0  0  0
   -5.8292    0.8489    5.6497 H   0  0  0  0  0  0  0  0  0  0  0  0
   -4.2801    1.6989    5.9640 H   0  0  0  0  0  0  0  0  0  0  0  0
   -5.8117    2.5999    5.9528 H   0  0  0  0  0  0  0  0  0  0  0  0
    2.4695    3.2813    2.4045 H   0  0  0  0  0  0  0  0  0  0  0  0
    2.3917   -1.0505   -0.2171 H   0  0  0  0  0  0  0  0  0  0  0  0
    4.0849   -2.0958   -1.3745 H   0  0  0  0  0  0  0  0  0  0  0  0
    6.2980   -1.9424   -2.4360 H   0  0  0  0  0  0  0  0  0  0  0  0
    7.3752    0.2618   -2.7703 H   0  0  0  0  0  0  0  0  0  0  0  0
    3.9762    2.1942   -0.9911 H   0  0  0  0  0  0  0  0  0  0  0  0
    7.3000    4.6687   -2.4430 H   0  0  0  0  0  0  0  0  0  0  0  0
  1  2  1  0
  2  3  1  0
  3  4  1  0
  4  5  1  0
  5  6  1  0
  6  7  2  0
  7  8  1  0
  8  9  2  0
  9 10  1  0
 10 11  2  0
 11 12  1  0
 12 13  1  0
 13 14  1  0
 14 15  1  0
 15 16  1  0
  9 17  1  0
 17 18  2  0
 18 19  1  0
 19 20  2  0
 20 21  1  0
 21 22  1  0
 22 23  2  0
 23 24  1  0
 24 25  2  0
 25 26  1  0
 26 27  2  0
 26 28  1  0
 28 29  3  0
 11  6  1  0
 20  8  1  0
 27 22  1  0
  1 30  1  0
  1 31  1  0
  1 32  1  0
  3 33  1  0
  3 34  1  0
  4 35  1  0
  4 36  1  0
  7 37  1  0
 10 38  1  0
 13 39  1  0
 13 40  1  0
 14 41  1  0
 14 42  1  0
 16 43  1  0
 16 44  1  0
 16 45  1  0
 18 46  1  0
 21 47  1  0
 23 48  1  0
 24 49  1  0
 25 50  1  0
 27 51  1  0
 29 52  1  0
M  END
>  <energy_abs>  (50) 
60.51852858300811

>  <SMILES>  (50) 
COCCOc1cc2c(cc1OCCOC)ncnc2Nc3cccc(c3)C#C

>  <cluster_no>  (50) 
50

>  <fda_drugs_id>  (50) 
AAKJLRGGTJKAMG-UHFFFAOYSA-N

>  <initial_conformation_id>  (50) 
255

>  <minimize_method>  (50) 
MMFF

$$$$

     RDKit          3D

 52 54  0  0  0  0  0  0  0  0999 V2000
   -2.5830   -3.4007   -4.0404 C   0  0  0  0  0  0  0  0  0  0  0  0
   -2.9844   -2.5414   -2.9798 O   0  0  0  0  0  0  0  0  0  0  0  0
   -2.2910   -2.8503   -1.7643 C   0  0  0  0  0  0  0  0  0  0  0  0
   -2.6443   -1.8301   -0.6826 C   0  0  0  0  0  0  0  0  0  0  0  0
   -1.9916   -0.5840   -0.9897 O   0  0  0  0  0  0  0  0  0  0  0  0
   -1.3146   -0.0472    0.0739 C   0  0  0  0  0  0  0  0  0  0  0  0
    0.0245    0.2571   -0.1621 C   0  0  0  0  0  0  0  0  0  0  0  0
    0.8304    0.8198    0.8547 C   0  0  0  0  0  0  0  0  0  0  0  0
    0.2671    1.0642    2.1131 C   0  0  0  0  0  0  0  0  0  0  0  0
   -1.0831    0.7910    2.3144 C   0  0  0  0  0  0  0  0  0  0  0  0
   -1.8954    0.2648    1.3046 C   0  0  0  0  0  0  0  0  0  0  0  0
   -3.2340    0.0129    1.4515 O   0  0  0  0  0  0  0  0  0  0  0  0
   -3.9240    0.7983    2.4284 C   0  0  0  0  0  0  0  0  0  0  0  0
   -5.4260    0.6995    2.1605 C   0  0  0  0  0  0  0  0  0  0  0  0
   -6.1817    1.5171    3.0554 O   0  0  0  0  0  0  0  0  0  0  0  0
   -6.4242    0.8993    4.3099 C   0  0  0  0  0  0  0  0  0  0  0  0
    0.9756    1.5533    3.1336 N   0  0  0  0  0  0  0  0  0  0  0  0
    2.2686    1.8061    2.9021 C   0  0  0  0  0  0  0  0  0  0  0  0
    2.9128    1.6309    1.7459 N   0  0  0  0  0  0  0  0  0  0  0  0
    2.1939    1.1502    0.7159 C   0  0  0  0  0  0  0  0  0  0  0  0
    2.8108    0.9694   -0.5506 N   0  0  0  0  0  0  0  0  0  0  0  0
    4.1815    0.9622   -0.8921 C   0  0  0  0  0  0  0  0  0  0  0  0
    5.1932    0.6341    0.0190 C   0  0  0  0  0  0  0  0  0  0  0  0
    6.5305    0.5595   -0.3826 C   0  0  0  0  0  0  0  0  0  0  0  0
    6.8735    0.7789   -1.7150 C   0  0  0  0  0  0  0  0  0  0  0  0
    5.8768    1.0594   -2.6475 C   0  0  0  0  0  0  0  0  0  0  0  0
    4.5412    1.1405   -2.2364 C   0  0  0  0  0  0  0  0  0  0  0  0
    6.2159    1.2449   -4.0258 C   0  0  0  0  0  0  0  0  0  0  0  0
    6.5000    1.3947   -5.1848 C   0  0  0  0  0  0  0  0  0  0  0  0
   -1.5227   -3.2490   -4.2674 H   0  0  0  0  0  0  0  0  0  0  0  0
   -3.1696   -3.1527   -4.9294 H   0  0  0  0  0  0  0  0  0  0  0  0
   -2.7681   -4.4485   -3.7781 H   0  0  0  0  0  0  0  0  0  0  0  0
   -1.2092   -2.8366   -1.9476 H   0  0  0  0  0  0  0  0  0  0  0  0
   -2.5964   -3.8522   -1.4381 H   0  0  0  0  0  0  0  0  0  0  0  0
   -3.7259   -1.6516   -0.6639 H   0  0  0  0  0  0  0  0  0  0  0  0
   -2.3212   -2.2346    0.2835 H   0  0  0  0  0  0  0  0  0  0  0  0
    0.4424    0.0288   -1.1417 H   0  0  0  0  0  0  0  0  0  0  0  0
   -1.4866    0.9981    3.3004 H   0  0  0  0  0  0  0  0  0  0  0  0
   -3.6990    0.4173    3.4336 H   0  0  0  0  0  0  0  0  0  0  0  0
   -3.6236    1.8550    2.3800 H   0  0  0  0  0  0  0  0  0  0  0  0
   -5.7716   -0.3406    2.1904 H   0  0  0  0  0  0  0  0  0  0  0  0
   -5.6254    1.0574    1.1440 H   0  0  0  0  0  0  0  0  0  0  0  0
   -5.4887    0.6847    4.8313 H   0  0  0  0  0  0  0  0  0  0  0  0
   -7.0104    1.5893    4.9231 H   0  0  0  0  0  0  0  0  0  0  0  0
   -7.0006   -0.0213    4.1768 H   0  0  0  0  0  0  0  0  0  0  0  0
    2.8498    2.1908    3.7350 H   0  0  0  0  0  0  0  0  0  0  0  0
    2.2547    1.4380   -1.2576 H   0  0  0  0  0  0  0  0  0  0  0  0
    4.9541    0.4199    1.0560 H   0  0  0  0  0  0  0  0  0  0  0  0
    7.2997    0.3144    0.3463 H   0  0  0  0  0  0  0  0  0  0  0  0
    7.9139    0.7103   -2.0236 H   0  0  0  0  0  0  0  0  0  0  0  0
    3.7750    1.3411   -2.9806 H   0  0  0  0  0  0  0  0  0  0  0  0
    6.7580    1.5401   -6.2102 H   0  0  0  0  0  0  0  0  0  0  0  0
  1  2  1  0
  2  3  1  0
  3  4  1  0
  4  5  1  0
  5  6  1  0
  6  7  2  0
  7  8  1  0
  8  9  2  0
  9 10  1  0
 10 11  2  0
 11 12  1  0
 12 13  1  0
 13 14  1  0
 14 15  1  0
 15 16  1  0
  9 17  1  0
 17 18  2  0
 18 19  1  0
 19 20  2  0
 20 21  1  0
 21 22  1  0
 22 23  2  0
 23 24  1  0
 24 25  2  0
 25 26  1  0
 26 27  2  0
 26 28  1  0
 28 29  3  0
 11  6  1  0
 20  8  1  0
 27 22  1  0
  1 30  1  0
  1 31  1  0
  1 32  1  0
  3 33  1  0
  3 34  1  0
  4 35  1  0
  4 36  1  0
  7 37  1  0
 10 38  1  0
 13 39  1  0
 13 40  1  0
 14 41  1  0
 14 42  1  0
 16 43  1  0
 16 44  1  0
 16 45  1  0
 18 46  1  0
 21 47  1  0
 23 48  1  0
 24 49  1  0
 25 50  1  0
 27 51  1  0
 29 52  1  0
M  END
>  <energy_abs>  (51) 
58.922802417573145

>  <SMILES>  (51) 
COCCOc1cc2c(cc1OCCOC)ncnc2Nc3cccc(c3)C#C

>  <cluster_no>  (51) 
51

>  <fda_drugs_id>  (51) 
AAKJLRGGTJKAMG-UHFFFAOYSA-N

>  <initial_conformation_id>  (51) 
254

>  <minimize_method>  (51) 
MMFF

$$$$

     RDKit          3D

 52 54  0  0  0  0  0  0  0  0999 V2000
   -3.8578   -3.3795   -2.6483 C   0  0  0  0  0  0  0  0  0  0  0  0
   -2.6098   -2.7584   -2.9710 O   0  0  0  0  0  0  0  0  0  0  0  0
   -2.5948   -1.3523   -2.7104 C   0  0  0  0  0  0  0  0  0  0  0  0
   -2.4991   -1.0162   -1.2163 C   0  0  0  0  0  0  0  0  0  0  0  0
   -2.2105    0.3937   -1.0805 O   0  0  0  0  0  0  0  0  0  0  0  0
   -1.4114    0.5958    0.0154 C   0  0  0  0  0  0  0  0  0  0  0  0
   -0.0405    0.7067   -0.2045 C   0  0  0  0  0  0  0  0  0  0  0  0
    0.8373    0.9449    0.8779 C   0  0  0  0  0  0  0  0  0  0  0  0
    0.3046    1.1204    2.1663 C   0  0  0  0  0  0  0  0  0  0  0  0
   -1.0728    1.0203    2.3534 C   0  0  0  0  0  0  0  0  0  0  0  0
   -1.9477    0.7547    1.2961 C   0  0  0  0  0  0  0  0  0  0  0  0
   -3.3035    0.6138    1.4092 O   0  0  0  0  0  0  0  0  0  0  0  0
   -3.9095    1.0205    2.6420 C   0  0  0  0  0  0  0  0  0  0  0  0
   -5.4275    0.8281    2.5304 C   0  0  0  0  0  0  0  0  0  0  0  0
   -5.8039   -0.5563    2.5141 O   0  0  0  0  0  0  0  0  0  0  0  0
   -5.8503   -1.1436    3.8098 C   0  0  0  0  0  0  0  0  0  0  0  0
    1.0699    1.3764    3.2340 N   0  0  0  0  0  0  0  0  0  0  0  0
    2.3876    1.4650    3.0188 C   0  0  0  0  0  0  0  0  0  0  0  0
    3.0109    1.3050    1.8427 N   0  0  0  0  0  0  0  0  0  0  0  0
    2.2414    1.0298    0.7751 C   0  0  0  0  0  0  0  0  0  0  0  0
    2.8468    0.7936   -0.4909 N   0  0  0  0  0  0  0  0  0  0  0  0
    4.1749    1.0385   -0.9074 C   0  0  0  0  0  0  0  0  0  0  0  0
    4.9882    2.0273   -0.3348 C   0  0  0  0  0  0  0  0  0  0  0  0
    6.2702    2.2852   -0.8303 C   0  0  0  0  0  0  0  0  0  0  0  0
    6.7505    1.5724   -1.9277 C   0  0  0  0  0  0  0  0  0  0  0  0
    5.9440    0.6081   -2.5348 C   0  0  0  0  0  0  0  0  0  0  0  0
    4.6613    0.3562   -2.0357 C   0  0  0  0  0  0  0  0  0  0  0  0
    6.4282   -0.1289   -3.6655 C   0  0  0  0  0  0  0  0  0  0  0  0
    6.8421   -0.7664   -4.5979 C   0  0  0  0  0  0  0  0  0  0  0  0
   -3.8005   -4.4384   -2.9426 H   0  0  0  0  0  0  0  0  0  0  0  0
   -4.6742   -2.9115   -3.2031 H   0  0  0  0  0  0  0  0  0  0  0  0
   -4.0551   -3.3314   -1.5665 H   0  0  0  0  0  0  0  0  0  0  0  0
   -1.7107   -0.9353   -3.2214 H   0  0  0  0  0  0  0  0  0  0  0  0
   -3.4667   -0.8723   -3.1656 H   0  0  0  0  0  0  0  0  0  0  0  0
   -3.4558   -1.2360   -0.7164 H   0  0  0  0  0  0  0  0  0  0  0  0
   -1.7298   -1.6497   -0.7527 H   0  0  0  0  0  0  0  0  0  0  0  0
    0.3349    0.6137   -1.2217 H   0  0  0  0  0  0  0  0  0  0  0  0
   -1.4391    1.1499    3.3705 H   0  0  0  0  0  0  0  0  0  0  0  0
   -3.6974    2.0848    2.8140 H   0  0  0  0  0  0  0  0  0  0  0  0
   -3.5162    0.4174    3.4676 H   0  0  0  0  0  0  0  0  0  0  0  0
   -5.7773    1.2571    1.5828 H   0  0  0  0  0  0  0  0  0  0  0  0
   -5.9481    1.3426    3.3489 H   0  0  0  0  0  0  0  0  0  0  0  0
   -6.5906   -0.6326    4.4294 H   0  0  0  0  0  0  0  0  0  0  0  0
   -6.1519   -2.1900    3.7047 H   0  0  0  0  0  0  0  0  0  0  0  0
   -4.8733   -1.1199    4.2919 H   0  0  0  0  0  0  0  0  0  0  0  0
    3.0110    1.6827    3.8866 H   0  0  0  0  0  0  0  0  0  0  0  0
    2.5036   -0.0908   -0.8580 H   0  0  0  0  0  0  0  0  0  0  0  0
    4.6344    2.6156    0.5080 H   0  0  0  0  0  0  0  0  0  0  0  0
    6.8870    3.0485   -0.3633 H   0  0  0  0  0  0  0  0  0  0  0  0
    7.7479    1.7778   -2.3083 H   0  0  0  0  0  0  0  0  0  0  0  0
    4.0398   -0.3867   -2.5343 H   0  0  0  0  0  0  0  0  0  0  0  0
    7.2183   -1.3464   -5.4106 H   0  0  0  0  0  0  0  0  0  0  0  0
  1  2  1  0
  2  3  1  0
  3  4  1  0
  4  5  1  0
  5  6  1  0
  6  7  2  0
  7  8  1  0
  8  9  2  0
  9 10  1  0
 10 11  2  0
 11 12  1  0
 12 13  1  0
 13 14  1  0
 14 15  1  0
 15 16  1  0
  9 17  1  0
 17 18  2  0
 18 19  1  0
 19 20  2  0
 20 21  1  0
 21 22  1  0
 22 23  2  0
 23 24  1  0
 24 25  2  0
 25 26  1  0
 26 27  2  0
 26 28  1  0
 28 29  3  0
 11  6  1  0
 20  8  1  0
 27 22  1  0
  1 30  1  0
  1 31  1  0
  1 32  1  0
  3 33  1  0
  3 34  1  0
  4 35  1  0
  4 36  1  0
  7 37  1  0
 10 38  1  0
 13 39  1  0
 13 40  1  0
 14 41  1  0
 14 42  1  0
 16 43  1  0
 16 44  1  0
 16 45  1  0
 18 46  1  0
 21 47  1  0
 23 48  1  0
 24 49  1  0
 25 50  1  0
 27 51  1  0
 29 52  1  0
M  END
>  <energy_abs>  (52) 
60.905581191551136

>  <SMILES>  (52) 
COCCOc1cc2c(cc1OCCOC)ncnc2Nc3cccc(c3)C#C

>  <cluster_no>  (52) 
52

>  <fda_drugs_id>  (52) 
AAKJLRGGTJKAMG-UHFFFAOYSA-N

>  <initial_conformation_id>  (52) 
253

>  <minimize_method>  (52) 
MMFF

$$$$

     RDKit          3D

 52 54  0  0  0  0  0  0  0  0999 V2000
   -4.0834   -3.6855   -3.1961 C   0  0  0  0  0  0  0  0  0  0  0  0
   -3.0216   -3.0386   -2.5077 O   0  0  0  0  0  0  0  0  0  0  0  0
   -2.7208   -1.7616   -3.0811 C   0  0  0  0  0  0  0  0  0  0  0  0
   -1.6362   -1.0727   -2.2520 C   0  0  0  0  0  0  0  0  0  0  0  0
   -2.2322   -0.5531   -1.0599 O   0  0  0  0  0  0  0  0  0  0  0  0
   -1.4173    0.0625   -0.1475 C   0  0  0  0  0  0  0  0  0  0  0  0
   -0.0507    0.2870   -0.3185 C   0  0  0  0  0  0  0  0  0  0  0  0
    0.7174    0.9363    0.6850 C   0  0  0  0  0  0  0  0  0  0  0  0
    0.0954    1.3434    1.8720 C   0  0  0  0  0  0  0  0  0  0  0  0
   -1.2662    1.1229    2.0264 C   0  0  0  0  0  0  0  0  0  0  0  0
   -2.0260    0.4811    1.0428 C   0  0  0  0  0  0  0  0  0  0  0  0
   -3.3807    0.2913    1.1510 O   0  0  0  0  0  0  0  0  0  0  0  0
   -3.8711   -0.0737    2.4438 C   0  0  0  0  0  0  0  0  0  0  0  0
   -4.7136    1.0642    3.0210 C   0  0  0  0  0  0  0  0  0  0  0  0
   -5.1788    0.7789    4.3410 O   0  0  0  0  0  0  0  0  0  0  0  0
   -6.3258   -0.0614    4.3559 C   0  0  0  0  0  0  0  0  0  0  0  0
    0.7565    1.9424    2.8657 N   0  0  0  0  0  0  0  0  0  0  0  0
    2.0672    2.1330    2.6878 C   0  0  0  0  0  0  0  0  0  0  0  0
    2.7714    1.7994    1.6043 N   0  0  0  0  0  0  0  0  0  0  0  0
    2.0977    1.2145    0.5976 C   0  0  0  0  0  0  0  0  0  0  0  0
    2.7856    0.8930   -0.6057 N   0  0  0  0  0  0  0  0  0  0  0  0
    4.1819    0.8370   -0.8241 C   0  0  0  0  0  0  0  0  0  0  0  0
    5.0871    0.4667    0.1776 C   0  0  0  0  0  0  0  0  0  0  0  0
    6.4550    0.3537   -0.0891 C   0  0  0  0  0  0  0  0  0  0  0  0
    6.9359    0.5856   -1.3758 C   0  0  0  0  0  0  0  0  0  0  0  0
    6.0467    0.9200   -2.3960 C   0  0  0  0  0  0  0  0  0  0  0  0
    4.6787    1.0318   -2.1227 C   0  0  0  0  0  0  0  0  0  0  0  0
    6.5306    1.1380   -3.7251 C   0  0  0  0  0  0  0  0  0  0  0  0
    6.9360    1.3185   -4.8412 C   0  0  0  0  0  0  0  0  0  0  0  0
   -3.8156   -3.8518   -4.2447 H   0  0  0  0  0  0  0  0  0  0  0  0
   -4.2609   -4.6549   -2.7221 H   0  0  0  0  0  0  0  0  0  0  0  0
   -5.0006   -3.0915   -3.1301 H   0  0  0  0  0  0  0  0  0  0  0  0
   -3.6295   -1.1487   -3.1037 H   0  0  0  0  0  0  0  0  0  0  0  0
   -2.3554   -1.9185   -4.1022 H   0  0  0  0  0  0  0  0  0  0  0  0
   -0.8550   -1.7975   -1.9946 H   0  0  0  0  0  0  0  0  0  0  0  0
   -1.2202   -0.2436   -2.8359 H   0  0  0  0  0  0  0  0  0  0  0  0
    0.4525   -0.0481   -1.2194 H   0  0  0  0  0  0  0  0  0  0  0  0
   -1.7319    1.4805    2.9406 H   0  0  0  0  0  0  0  0  0  0  0  0
   -4.5014   -0.9590    2.3008 H   0  0  0  0  0  0  0  0  0  0  0  0
   -3.0871   -0.3905    3.1431 H   0  0  0  0  0  0  0  0  0  0  0  0
   -5.5501    1.3142    2.3566 H   0  0  0  0  0  0  0  0  0  0  0  0
   -4.1025    1.9713    3.0843 H   0  0  0  0  0  0  0  0  0  0  0  0
   -7.1483    0.4029    3.8017 H   0  0  0  0  0  0  0  0  0  0  0  0
   -6.0960   -1.0466    3.9378 H   0  0  0  0  0  0  0  0  0  0  0  0
   -6.6392   -0.1940    5.3963 H   0  0  0  0  0  0  0  0  0  0  0  0
    2.6093    2.6072    3.4987 H   0  0  0  0  0  0  0  0  0  0  0  0
    2.3111    1.3514   -1.3768 H   0  0  0  0  0  0  0  0  0  0  0  0
    4.7355    0.2532    1.1837 H   0  0  0  0  0  0  0  0  0  0  0  0
    7.1404    0.0790    0.7085 H   0  0  0  0  0  0  0  0  0  0  0  0
    8.0002    0.4945   -1.5773 H   0  0  0  0  0  0  0  0  0  0  0  0
    3.9995    1.2813   -2.9337 H   0  0  0  0  0  0  0  0  0  0  0  0
    7.2969    1.4819   -5.8289 H   0  0  0  0  0  0  0  0  0  0  0  0
  1  2  1  0
  2  3  1  0
  3  4  1  0
  4  5  1  0
  5  6  1  0
  6  7  2  0
  7  8  1  0
  8  9  2  0
  9 10  1  0
 10 11  2  0
 11 12  1  0
 12 13  1  0
 13 14  1  0
 14 15  1  0
 15 16  1  0
  9 17  1  0
 17 18  2  0
 18 19  1  0
 19 20  2  0
 20 21  1  0
 21 22  1  0
 22 23  2  0
 23 24  1  0
 24 25  2  0
 25 26  1  0
 26 27  2  0
 26 28  1  0
 28 29  3  0
 11  6  1  0
 20  8  1  0
 27 22  1  0
  1 30  1  0
  1 31  1  0
  1 32  1  0
  3 33  1  0
  3 34  1  0
  4 35  1  0
  4 36  1  0
  7 37  1  0
 10 38  1  0
 13 39  1  0
 13 40  1  0
 14 41  1  0
 14 42  1  0
 16 43  1  0
 16 44  1  0
 16 45  1  0
 18 46  1  0
 21 47  1  0
 23 48  1  0
 24 49  1  0
 25 50  1  0
 27 51  1  0
 29 52  1  0
M  END
>  <energy_abs>  (53) 
61.09459043384787

>  <SMILES>  (53) 
COCCOc1cc2c(cc1OCCOC)ncnc2Nc3cccc(c3)C#C

>  <cluster_no>  (53) 
53

>  <fda_drugs_id>  (53) 
AAKJLRGGTJKAMG-UHFFFAOYSA-N

>  <initial_conformation_id>  (53) 
252

>  <minimize_method>  (53) 
MMFF

$$$$

     RDKit          3D

 52 54  0  0  0  0  0  0  0  0999 V2000
   -1.5403   -0.5758   -4.0418 C   0  0  0  0  0  0  0  0  0  0  0  0
   -1.2579   -1.2258   -2.8081 O   0  0  0  0  0  0  0  0  0  0  0  0
   -2.4041   -1.9320   -2.3146 C   0  0  0  0  0  0  0  0  0  0  0  0
   -2.1136   -2.5097   -0.9252 C   0  0  0  0  0  0  0  0  0  0  0  0
   -2.4984   -1.6195    0.1307 O   0  0  0  0  0  0  0  0  0  0  0  0
   -1.7433   -0.5126    0.3934 C   0  0  0  0  0  0  0  0  0  0  0  0
   -0.4419   -0.3105   -0.0576 C   0  0  0  0  0  0  0  0  0  0  0  0
    0.2502    0.9050    0.1913 C   0  0  0  0  0  0  0  0  0  0  0  0
   -0.3625    1.9048    0.9563 C   0  0  0  0  0  0  0  0  0  0  0  0
   -1.6456    1.6821    1.4307 C   0  0  0  0  0  0  0  0  0  0  0  0
   -2.3275    0.4895    1.1726 C   0  0  0  0  0  0  0  0  0  0  0  0
   -3.6029    0.4148    1.6723 O   0  0  0  0  0  0  0  0  0  0  0  0
   -3.7788   -0.6897    2.5707 C   0  0  0  0  0  0  0  0  0  0  0  0
   -4.7250   -0.2656    3.6978 C   0  0  0  0  0  0  0  0  0  0  0  0
   -4.2151    0.7972    4.5101 O   0  0  0  0  0  0  0  0  0  0  0  0
   -3.1283    0.4147    5.3396 C   0  0  0  0  0  0  0  0  0  0  0  0
    0.2389    3.0616    1.2465 N   0  0  0  0  0  0  0  0  0  0  0  0
    1.4743    3.2327    0.7661 C   0  0  0  0  0  0  0  0  0  0  0  0
    2.1556    2.3656    0.0132 N   0  0  0  0  0  0  0  0  0  0  0  0
    1.5417    1.2078   -0.2871 C   0  0  0  0  0  0  0  0  0  0  0  0
    2.1955    0.2617   -1.1253 N   0  0  0  0  0  0  0  0  0  0  0  0
    3.5416    0.2363   -1.5545 C   0  0  0  0  0  0  0  0  0  0  0  0
    3.8653   -0.4795   -2.7191 C   0  0  0  0  0  0  0  0  0  0  0  0
    5.1877   -0.5891   -3.1575 C   0  0  0  0  0  0  0  0  0  0  0  0
    6.2145   -0.0028   -2.4216 C   0  0  0  0  0  0  0  0  0  0  0  0
    5.9182    0.6795   -1.2420 C   0  0  0  0  0  0  0  0  0  0  0  0
    4.5918    0.7834   -0.8067 C   0  0  0  0  0  0  0  0  0  0  0  0
    6.9726    1.2667   -0.4726 C   0  0  0  0  0  0  0  0  0  0  0  0
    7.8560    1.7636    0.1716 C   0  0  0  0  0  0  0  0  0  0  0  0
   -0.6332   -0.0647   -4.3750 H   0  0  0  0  0  0  0  0  0  0  0  0
   -1.8304   -1.3070   -4.8022 H   0  0  0  0  0  0  0  0  0  0  0  0
   -2.3316    0.1684   -3.9108 H   0  0  0  0  0  0  0  0  0  0  0  0
   -3.2682   -1.2589   -2.2773 H   0  0  0  0  0  0  0  0  0  0  0  0
   -2.6105   -2.7536   -3.0097 H   0  0  0  0  0  0  0  0  0  0  0  0
   -1.0813   -2.8546   -0.8066 H   0  0  0  0  0  0  0  0  0  0  0  0
   -2.7524   -3.3901   -0.7916 H   0  0  0  0  0  0  0  0  0  0  0  0
    0.0665   -1.0854   -0.6205 H   0  0  0  0  0  0  0  0  0  0  0  0
   -2.1341    2.4538    2.0218 H   0  0  0  0  0  0  0  0  0  0  0  0
   -2.8249   -1.0341    2.9881 H   0  0  0  0  0  0  0  0  0  0  0  0
   -4.2404   -1.5147    2.0172 H   0  0  0  0  0  0  0  0  0  0  0  0
   -5.6568    0.1080    3.2603 H   0  0  0  0  0  0  0  0  0  0  0  0
   -4.9770   -1.1217    4.3336 H   0  0  0  0  0  0  0  0  0  0  0  0
   -2.2340    0.2157    4.7434 H   0  0  0  0  0  0  0  0  0  0  0  0
   -3.3870   -0.4612    5.9423 H   0  0  0  0  0  0  0  0  0  0  0  0
   -2.9060    1.2466    6.0136 H   0  0  0  0  0  0  0  0  0  0  0  0
    1.9698    4.1665    1.0082 H   0  0  0  0  0  0  0  0  0  0  0  0
    1.5616    0.0034   -1.8771 H   0  0  0  0  0  0  0  0  0  0  0  0
    3.0835   -0.9585   -3.3034 H   0  0  0  0  0  0  0  0  0  0  0  0
    5.4151   -1.1355   -4.0687 H   0  0  0  0  0  0  0  0  0  0  0  0
    7.2423   -0.0886   -2.7650 H   0  0  0  0  0  0  0  0  0  0  0  0
    4.3855    1.2945    0.1296 H   0  0  0  0  0  0  0  0  0  0  0  0
    8.6362    2.2068    0.7451 H   0  0  0  0  0  0  0  0  0  0  0  0
  1  2  1  0
  2  3  1  0
  3  4  1  0
  4  5  1  0
  5  6  1  0
  6  7  2  0
  7  8  1  0
  8  9  2  0
  9 10  1  0
 10 11  2  0
 11 12  1  0
 12 13  1  0
 13 14  1  0
 14 15  1  0
 15 16  1  0
  9 17  1  0
 17 18  2  0
 18 19  1  0
 19 20  2  0
 20 21  1  0
 21 22  1  0
 22 23  2  0
 23 24  1  0
 24 25  2  0
 25 26  1  0
 26 27  2  0
 26 28  1  0
 28 29  3  0
 11  6  1  0
 20  8  1  0
 27 22  1  0
  1 30  1  0
  1 31  1  0
  1 32  1  0
  3 33  1  0
  3 34  1  0
  4 35  1  0
  4 36  1  0
  7 37  1  0
 10 38  1  0
 13 39  1  0
 13 40  1  0
 14 41  1  0
 14 42  1  0
 16 43  1  0
 16 44  1  0
 16 45  1  0
 18 46  1  0
 21 47  1  0
 23 48  1  0
 24 49  1  0
 25 50  1  0
 27 51  1  0
 29 52  1  0
M  END
>  <energy_abs>  (54) 
59.87189122168679

>  <SMILES>  (54) 
COCCOc1cc2c(cc1OCCOC)ncnc2Nc3cccc(c3)C#C

>  <cluster_no>  (54) 
54

>  <fda_drugs_id>  (54) 
AAKJLRGGTJKAMG-UHFFFAOYSA-N

>  <initial_conformation_id>  (54) 
251

>  <minimize_method>  (54) 
MMFF

$$$$

     RDKit          3D

 52 54  0  0  0  0  0  0  0  0999 V2000
   -5.0731   -1.8451   -3.8320 C   0  0  0  0  0  0  0  0  0  0  0  0
   -3.9010   -1.3121   -3.2309 O   0  0  0  0  0  0  0  0  0  0  0  0
   -3.1251   -2.3310   -2.5919 C   0  0  0  0  0  0  0  0  0  0  0  0
   -1.9091   -1.6969   -1.9149 C   0  0  0  0  0  0  0  0  0  0  0  0
   -2.3367   -1.0562   -0.7090 O   0  0  0  0  0  0  0  0  0  0  0  0
   -1.3742   -0.5261    0.1073 C   0  0  0  0  0  0  0  0  0  0  0  0
   -0.0258   -0.3870   -0.2229 C   0  0  0  0  0  0  0  0  0  0  0  0
    0.9013    0.1773    0.6977 C   0  0  0  0  0  0  0  0  0  0  0  0
    0.4503    0.6201    1.9503 C   0  0  0  0  0  0  0  0  0  0  0  0
   -0.8917    0.4770    2.2668 C   0  0  0  0  0  0  0  0  0  0  0  0
   -1.8033   -0.0709    1.3583 C   0  0  0  0  0  0  0  0  0  0  0  0
   -3.1168   -0.2590    1.7086 O   0  0  0  0  0  0  0  0  0  0  0  0
   -3.7882    0.9555    2.0757 C   0  0  0  0  0  0  0  0  0  0  0  0
   -4.3747    0.7981    3.4806 C   0  0  0  0  0  0  0  0  0  0  0  0
   -4.9774    2.0009    3.9646 O   0  0  0  0  0  0  0  0  0  0  0  0
   -6.2710    2.2373    3.4234 C   0  0  0  0  0  0  0  0  0  0  0  0
    1.2582    1.1735    2.8591 N   0  0  0  0  0  0  0  0  0  0  0  0
    2.5435    1.3047    2.5185 C   0  0  0  0  0  0  0  0  0  0  0  0
    3.0958    0.9175    1.3653 N   0  0  0  0  0  0  0  0  0  0  0  0
    2.2815    0.3454    0.4590 C   0  0  0  0  0  0  0  0  0  0  0  0
    2.8302   -0.1360   -0.7649 N   0  0  0  0  0  0  0  0  0  0  0  0
    4.1013    0.1464   -1.3198 C   0  0  0  0  0  0  0  0  0  0  0  0
    4.6768   -0.7771   -2.2102 C   0  0  0  0  0  0  0  0  0  0  0  0
    5.9026   -0.5162   -2.8306 C   0  0  0  0  0  0  0  0  0  0  0  0
    6.5605    0.6886   -2.5901 C   0  0  0  0  0  0  0  0  0  0  0  0
    5.9850    1.6361   -1.7408 C   0  0  0  0  0  0  0  0  0  0  0  0
    4.7574    1.3695   -1.1224 C   0  0  0  0  0  0  0  0  0  0  0  0
    6.6456    2.8855   -1.5100 C   0  0  0  0  0  0  0  0  0  0  0  0
    7.1969    3.9347   -1.3151 C   0  0  0  0  0  0  0  0  0  0  0  0
   -5.6332   -1.0237   -4.2825 H   0  0  0  0  0  0  0  0  0  0  0  0
   -4.8089   -2.5583   -4.6165 H   0  0  0  0  0  0  0  0  0  0  0  0
   -5.7050   -2.3271   -3.0825 H   0  0  0  0  0  0  0  0  0  0  0  0
   -3.7453   -2.8491   -1.8511 H   0  0  0  0  0  0  0  0  0  0  0  0
   -2.7896   -3.0427   -3.3549 H   0  0  0  0  0  0  0  0  0  0  0  0
   -1.1913   -2.4891   -1.6709 H   0  0  0  0  0  0  0  0  0  0  0  0
   -1.4575   -0.9574   -2.5870 H   0  0  0  0  0  0  0  0  0  0  0  0
    0.3332   -0.6878   -1.2030 H   0  0  0  0  0  0  0  0  0  0  0  0
   -1.2272    0.7939    3.2515 H   0  0  0  0  0  0  0  0  0  0  0  0
   -3.1548    1.8514    2.0170 H   0  0  0  0  0  0  0  0  0  0  0  0
   -4.5946    1.1122    1.3491 H   0  0  0  0  0  0  0  0  0  0  0  0
   -5.0839   -0.0382    3.5222 H   0  0  0  0  0  0  0  0  0  0  0  0
   -3.5690    0.5388    4.1784 H   0  0  0  0  0  0  0  0  0  0  0  0
   -6.9258    1.3785    3.5970 H   0  0  0  0  0  0  0  0  0  0  0  0
   -6.2112    2.4610    2.3520 H   0  0  0  0  0  0  0  0  0  0  0  0
   -6.7014    3.1073    3.9339 H   0  0  0  0  0  0  0  0  0  0  0  0
    3.2009    1.7652    3.2490 H   0  0  0  0  0  0  0  0  0  0  0  0
    2.6071   -1.1234   -0.8484 H   0  0  0  0  0  0  0  0  0  0  0  0
    4.1774   -1.7187   -2.4271 H   0  0  0  0  0  0  0  0  0  0  0  0
    6.3405   -1.2498   -3.5044 H   0  0  0  0  0  0  0  0  0  0  0  0
    7.5138    0.8884   -3.0746 H   0  0  0  0  0  0  0  0  0  0  0  0
    4.3117    2.1307   -0.4845 H   0  0  0  0  0  0  0  0  0  0  0  0
    7.6814    4.8668   -1.1402 H   0  0  0  0  0  0  0  0  0  0  0  0
  1  2  1  0
  2  3  1  0
  3  4  1  0
  4  5  1  0
  5  6  1  0
  6  7  2  0
  7  8  1  0
  8  9  2  0
  9 10  1  0
 10 11  2  0
 11 12  1  0
 12 13  1  0
 13 14  1  0
 14 15  1  0
 15 16  1  0
  9 17  1  0
 17 18  2  0
 18 19  1  0
 19 20  2  0
 20 21  1  0
 21 22  1  0
 22 23  2  0
 23 24  1  0
 24 25  2  0
 25 26  1  0
 26 27  2  0
 26 28  1  0
 28 29  3  0
 11  6  1  0
 20  8  1  0
 27 22  1  0
  1 30  1  0
  1 31  1  0
  1 32  1  0
  3 33  1  0
  3 34  1  0
  4 35  1  0
  4 36  1  0
  7 37  1  0
 10 38  1  0
 13 39  1  0
 13 40  1  0
 14 41  1  0
 14 42  1  0
 16 43  1  0
 16 44  1  0
 16 45  1  0
 18 46  1  0
 21 47  1  0
 23 48  1  0
 24 49  1  0
 25 50  1  0
 27 51  1  0
 29 52  1  0
M  END
>  <energy_abs>  (55) 
61.090583114492205

>  <SMILES>  (55) 
COCCOc1cc2c(cc1OCCOC)ncnc2Nc3cccc(c3)C#C

>  <cluster_no>  (55) 
55

>  <fda_drugs_id>  (55) 
AAKJLRGGTJKAMG-UHFFFAOYSA-N

>  <initial_conformation_id>  (55) 
250

>  <minimize_method>  (55) 
MMFF

$$$$

     RDKit          3D

 52 54  0  0  0  0  0  0  0  0999 V2000
   -5.4075   -2.2311   -4.1474 C   0  0  0  0  0  0  0  0  0  0  0  0
   -5.0316   -1.6654   -2.8985 O   0  0  0  0  0  0  0  0  0  0  0  0
   -3.6367   -1.8364   -2.6444 C   0  0  0  0  0  0  0  0  0  0  0  0
   -3.2809   -1.2025   -1.3019 C   0  0  0  0  0  0  0  0  0  0  0  0
   -1.8833   -1.3831   -1.0740 O   0  0  0  0  0  0  0  0  0  0  0  0
   -1.2897   -0.5959   -0.1253 C   0  0  0  0  0  0  0  0  0  0  0  0
    0.0887   -0.4566   -0.3101 C   0  0  0  0  0  0  0  0  0  0  0  0
    0.8890    0.3027    0.5800 C   0  0  0  0  0  0  0  0  0  0  0  0
    0.2832    0.9259    1.6761 C   0  0  0  0  0  0  0  0  0  0  0  0
   -1.0836    0.7634    1.8626 C   0  0  0  0  0  0  0  0  0  0  0  0
   -1.8821    0.0310    0.9718 C   0  0  0  0  0  0  0  0  0  0  0  0
   -3.2081   -0.1611    1.2516 O   0  0  0  0  0  0  0  0  0  0  0  0
   -3.9675    1.0520    1.3995 C   0  0  0  0  0  0  0  0  0  0  0  0
   -4.7778    0.9928    2.6928 C   0  0  0  0  0  0  0  0  0  0  0  0
   -3.9175    1.2461    3.8073 O   0  0  0  0  0  0  0  0  0  0  0  0
   -4.6140    1.1515    5.0424 C   0  0  0  0  0  0  0  0  0  0  0  0
    0.9672    1.6651    2.5539 N   0  0  0  0  0  0  0  0  0  0  0  0
    2.2792    1.7986    2.3351 C   0  0  0  0  0  0  0  0  0  0  0  0
    2.9703    1.2536    1.3318 N   0  0  0  0  0  0  0  0  0  0  0  0
    2.2807    0.4965    0.4601 C   0  0  0  0  0  0  0  0  0  0  0  0
    2.9717   -0.1446   -0.6049 N   0  0  0  0  0  0  0  0  0  0  0  0
    4.2858    0.0987   -1.0661 C   0  0  0  0  0  0  0  0  0  0  0  0
    4.9768   -0.9304   -1.7256 C   0  0  0  0  0  0  0  0  0  0  0  0
    6.2542   -0.7211   -2.2527 C   0  0  0  0  0  0  0  0  0  0  0  0
    6.8516    0.5329   -2.1488 C   0  0  0  0  0  0  0  0  0  0  0  0
    6.1660    1.5779   -1.5303 C   0  0  0  0  0  0  0  0  0  0  0  0
    4.8874    1.3624   -1.0042 C   0  0  0  0  0  0  0  0  0  0  0  0
    6.7699    2.8729   -1.4393 C   0  0  0  0  0  0  0  0  0  0  0  0
    7.2775    3.9586   -1.3625 C   0  0  0  0  0  0  0  0  0  0  0  0
   -4.8742   -1.7392   -4.9666 H   0  0  0  0  0  0  0  0  0  0  0  0
   -6.4809   -2.0760   -4.2864 H   0  0  0  0  0  0  0  0  0  0  0  0
   -5.2067   -3.3072   -4.1569 H   0  0  0  0  0  0  0  0  0  0  0  0
   -3.3853   -2.9037   -2.6303 H   0  0  0  0  0  0  0  0  0  0  0  0
   -3.0507   -1.3654   -3.4430 H   0  0  0  0  0  0  0  0  0  0  0  0
   -3.8629   -1.6962   -0.5147 H   0  0  0  0  0  0  0  0  0  0  0  0
   -3.5455   -0.1381   -1.3393 H   0  0  0  0  0  0  0  0  0  0  0  0
    0.5415   -0.9356   -1.1758 H   0  0  0  0  0  0  0  0  0  0  0  0
   -1.5327    1.2097    2.7478 H   0  0  0  0  0  0  0  0  0  0  0  0
   -3.3484    1.9564    1.3666 H   0  0  0  0  0  0  0  0  0  0  0  0
   -4.6587    1.0906    0.5503 H   0  0  0  0  0  0  0  0  0  0  0  0
   -5.2391    0.0059    2.8069 H   0  0  0  0  0  0  0  0  0  0  0  0
   -5.5564    1.7624    2.6709 H   0  0  0  0  0  0  0  0  0  0  0  0
   -3.9040    1.3375    5.8521 H   0  0  0  0  0  0  0  0  0  0  0  0
   -5.4082    1.9033    5.0923 H   0  0  0  0  0  0  0  0  0  0  0  0
   -5.0354    0.1496    5.1708 H   0  0  0  0  0  0  0  0  0  0  0  0
    2.8360    2.4049    3.0413 H   0  0  0  0  0  0  0  0  0  0  0  0
    2.7678   -1.1383   -0.5700 H   0  0  0  0  0  0  0  0  0  0  0  0
    4.5279   -1.9147   -1.8300 H   0  0  0  0  0  0  0  0  0  0  0  0
    6.7794   -1.5344   -2.7453 H   0  0  0  0  0  0  0  0  0  0  0  0
    7.8458    0.6923   -2.5587 H   0  0  0  0  0  0  0  0  0  0  0  0
    4.3587    2.1949   -0.5478 H   0  0  0  0  0  0  0  0  0  0  0  0
    7.7308    4.9202   -1.2877 H   0  0  0  0  0  0  0  0  0  0  0  0
  1  2  1  0
  2  3  1  0
  3  4  1  0
  4  5  1  0
  5  6  1  0
  6  7  2  0
  7  8  1  0
  8  9  2  0
  9 10  1  0
 10 11  2  0
 11 12  1  0
 12 13  1  0
 13 14  1  0
 14 15  1  0
 15 16  1  0
  9 17  1  0
 17 18  2  0
 18 19  1  0
 19 20  2  0
 20 21  1  0
 21 22  1  0
 22 23  2  0
 23 24  1  0
 24 25  2  0
 25 26  1  0
 26 27  2  0
 26 28  1  0
 28 29  3  0
 11  6  1  0
 20  8  1  0
 27 22  1  0
  1 30  1  0
  1 31  1  0
  1 32  1  0
  3 33  1  0
  3 34  1  0
  4 35  1  0
  4 36  1  0
  7 37  1  0
 10 38  1  0
 13 39  1  0
 13 40  1  0
 14 41  1  0
 14 42  1  0
 16 43  1  0
 16 44  1  0
 16 45  1  0
 18 46  1  0
 21 47  1  0
 23 48  1  0
 24 49  1  0
 25 50  1  0
 27 51  1  0
 29 52  1  0
M  END
>  <energy_abs>  (56) 
57.61470449543711

>  <SMILES>  (56) 
COCCOc1cc2c(cc1OCCOC)ncnc2Nc3cccc(c3)C#C

>  <cluster_no>  (56) 
56

>  <fda_drugs_id>  (56) 
AAKJLRGGTJKAMG-UHFFFAOYSA-N

>  <initial_conformation_id>  (56) 
249

>  <minimize_method>  (56) 
MMFF

$$$$

     RDKit          3D

 52 54  0  0  0  0  0  0  0  0999 V2000
   -3.3680   -3.2616   -3.3934 C   0  0  0  0  0  0  0  0  0  0  0  0
   -3.9970   -2.1774   -2.7268 O   0  0  0  0  0  0  0  0  0  0  0  0
   -3.4059   -0.9063   -3.0144 C   0  0  0  0  0  0  0  0  0  0  0  0
   -2.1159   -0.6514   -2.2274 C   0  0  0  0  0  0  0  0  0  0  0  0
   -2.4396   -0.4997   -0.8434 O   0  0  0  0  0  0  0  0  0  0  0  0
   -1.4476   -0.0818    0.0051 C   0  0  0  0  0  0  0  0  0  0  0  0
   -0.0884   -0.0738   -0.3105 C   0  0  0  0  0  0  0  0  0  0  0  0
    0.8779    0.3692    0.6293 C   0  0  0  0  0  0  0  0  0  0  0  0
    0.4577    0.8202    1.8860 C   0  0  0  0  0  0  0  0  0  0  0  0
   -0.8969    0.7937    2.1924 C   0  0  0  0  0  0  0  0  0  0  0  0
   -1.8555    0.3435    1.2783 C   0  0  0  0  0  0  0  0  0  0  0  0
   -3.2043    0.2978    1.5237 O   0  0  0  0  0  0  0  0  0  0  0  0
   -3.6624    0.6614    2.8239 C   0  0  0  0  0  0  0  0  0  0  0  0
   -5.1754    0.4517    2.8782 C   0  0  0  0  0  0  0  0  0  0  0  0
   -5.7149    0.7738    4.1609 O   0  0  0  0  0  0  0  0  0  0  0  0
   -5.9737    2.1624    4.3194 C   0  0  0  0  0  0  0  0  0  0  0  0
    1.3070    1.2771    2.8098 N   0  0  0  0  0  0  0  0  0  0  0  0
    2.6027    1.2936    2.4813 C   0  0  0  0  0  0  0  0  0  0  0  0
    3.1266    0.8828    1.3247 N   0  0  0  0  0  0  0  0  0  0  0  0
    2.2694    0.4105    0.4029 C   0  0  0  0  0  0  0  0  0  0  0  0
    2.7773   -0.0909   -0.8280 N   0  0  0  0  0  0  0  0  0  0  0  0
    4.0655    0.0965   -1.3812 C   0  0  0  0  0  0  0  0  0  0  0  0
    4.5565   -0.8483   -2.2968 C   0  0  0  0  0  0  0  0  0  0  0  0
    5.7942   -0.6733   -2.9218 C   0  0  0  0  0  0  0  0  0  0  0  0
    6.5506    0.4665   -2.6595 C   0  0  0  0  0  0  0  0  0  0  0  0
    6.0628    1.4347   -1.7823 C   0  0  0  0  0  0  0  0  0  0  0  0
    4.8229    1.2540   -1.1591 C   0  0  0  0  0  0  0  0  0  0  0  0
    6.8265    2.6181   -1.5280 C   0  0  0  0  0  0  0  0  0  0  0  0
    7.4667    3.6112   -1.3140 C   0  0  0  0  0  0  0  0  0  0  0  0
   -2.3399   -3.3938   -3.0471 H   0  0  0  0  0  0  0  0  0  0  0  0
   -3.9257   -4.1736   -3.1632 H   0  0  0  0  0  0  0  0  0  0  0  0
   -3.3850   -3.1104   -4.4769 H   0  0  0  0  0  0  0  0  0  0  0  0
   -3.2257   -0.8190   -4.0919 H   0  0  0  0  0  0  0  0  0  0  0  0
   -4.1502   -0.1518   -2.7377 H   0  0  0  0  0  0  0  0  0  0  0  0
   -1.6596    0.2723   -2.6027 H   0  0  0  0  0  0  0  0  0  0  0  0
   -1.4228   -1.4892   -2.3494 H   0  0  0  0  0  0  0  0  0  0  0  0
    0.2497   -0.3994   -1.2883 H   0  0  0  0  0  0  0  0  0  0  0  0
   -1.1829    1.1447    3.1792 H   0  0  0  0  0  0  0  0  0  0  0  0
   -3.4256    1.7121    3.0248 H   0  0  0  0  0  0  0  0  0  0  0  0
   -3.1902    0.0387    3.5938 H   0  0  0  0  0  0  0  0  0  0  0  0
   -5.6851    1.0115    2.0842 H   0  0  0  0  0  0  0  0  0  0  0  0
   -5.3927   -0.6060    2.6893 H   0  0  0  0  0  0  0  0  0  0  0  0
   -6.6920    2.5070    3.5693 H   0  0  0  0  0  0  0  0  0  0  0  0
   -5.0503    2.7439    4.2527 H   0  0  0  0  0  0  0  0  0  0  0  0
   -6.4076    2.3180    5.3109 H   0  0  0  0  0  0  0  0  0  0  0  0
    3.2941    1.6727    3.2260 H   0  0  0  0  0  0  0  0  0  0  0  0
    2.4698   -1.0527   -0.9308 H   0  0  0  0  0  0  0  0  0  0  0  0
    3.9799   -1.7396   -2.5303 H   0  0  0  0  0  0  0  0  0  0  0  0
    6.1646   -1.4229   -3.6161 H   0  0  0  0  0  0  0  0  0  0  0  0
    7.5125    0.6003   -3.1481 H   0  0  0  0  0  0  0  0  0  0  0  0
    4.4477    2.0314   -0.4984 H   0  0  0  0  0  0  0  0  0  0  0  0
    8.0327    4.4926   -1.1216 H   0  0  0  0  0  0  0  0  0  0  0  0
  1  2  1  0
  2  3  1  0
  3  4  1  0
  4  5  1  0
  5  6  1  0
  6  7  2  0
  7  8  1  0
  8  9  2  0
  9 10  1  0
 10 11  2  0
 11 12  1  0
 12 13  1  0
 13 14  1  0
 14 15  1  0
 15 16  1  0
  9 17  1  0
 17 18  2  0
 18 19  1  0
 19 20  2  0
 20 21  1  0
 21 22  1  0
 22 23  2  0
 23 24  1  0
 24 25  2  0
 25 26  1  0
 26 27  2  0
 26 28  1  0
 28 29  3  0
 11  6  1  0
 20  8  1  0
 27 22  1  0
  1 30  1  0
  1 31  1  0
  1 32  1  0
  3 33  1  0
  3 34  1  0
  4 35  1  0
  4 36  1  0
  7 37  1  0
 10 38  1  0
 13 39  1  0
 13 40  1  0
 14 41  1  0
 14 42  1  0
 16 43  1  0
 16 44  1  0
 16 45  1  0
 18 46  1  0
 21 47  1  0
 23 48  1  0
 24 49  1  0
 25 50  1  0
 27 51  1  0
 29 52  1  0
M  END
>  <energy_abs>  (57) 
61.473000612608075

>  <SMILES>  (57) 
COCCOc1cc2c(cc1OCCOC)ncnc2Nc3cccc(c3)C#C

>  <cluster_no>  (57) 
57

>  <fda_drugs_id>  (57) 
AAKJLRGGTJKAMG-UHFFFAOYSA-N

>  <initial_conformation_id>  (57) 
248

>  <minimize_method>  (57) 
MMFF

$$$$

     RDKit          3D

 52 54  0  0  0  0  0  0  0  0999 V2000
   -4.6294   -1.5333   -2.5673 C   0  0  0  0  0  0  0  0  0  0  0  0
   -3.8506   -0.4571   -2.0715 O   0  0  0  0  0  0  0  0  0  0  0  0
   -2.4899   -0.4817   -2.5144 C   0  0  0  0  0  0  0  0  0  0  0  0
   -1.6714   -1.6830   -2.0166 C   0  0  0  0  0  0  0  0  0  0  0  0
   -1.6844   -1.8499   -0.5919 O   0  0  0  0  0  0  0  0  0  0  0  0
   -1.1065   -0.8335    0.1209 C   0  0  0  0  0  0  0  0  0  0  0  0
    0.2079   -0.4288   -0.1050 C   0  0  0  0  0  0  0  0  0  0  0  0
    0.7847    0.6106    0.6661 C   0  0  0  0  0  0  0  0  0  0  0  0
    0.0210    1.2269    1.6669 C   0  0  0  0  0  0  0  0  0  0  0  0
   -1.2771    0.7843    1.8976 C   0  0  0  0  0  0  0  0  0  0  0  0
   -1.8555   -0.2358    1.1382 C   0  0  0  0  0  0  0  0  0  0  0  0
   -3.1153   -0.7344    1.3381 O   0  0  0  0  0  0  0  0  0  0  0  0
   -4.0970    0.1510    1.8850 C   0  0  0  0  0  0  0  0  0  0  0  0
   -4.3720   -0.2093    3.3463 C   0  0  0  0  0  0  0  0  0  0  0  0
   -5.2525    0.7141    3.9912 O   0  0  0  0  0  0  0  0  0  0  0  0
   -6.6096    0.5675    3.5908 C   0  0  0  0  0  0  0  0  0  0  0  0
    0.4924    2.2231    2.4196 N   0  0  0  0  0  0  0  0  0  0  0  0
    1.7428    2.6262    2.1725 C   0  0  0  0  0  0  0  0  0  0  0  0
    2.5690    2.1168    1.2559 N   0  0  0  0  0  0  0  0  0  0  0  0
    2.0984    1.1013    0.5111 C   0  0  0  0  0  0  0  0  0  0  0  0
    2.9467    0.4912   -0.4541 N   0  0  0  0  0  0  0  0  0  0  0  0
    4.1748    0.9617   -0.9723 C   0  0  0  0  0  0  0  0  0  0  0  0
    4.4836    2.3237   -1.0734 C   0  0  0  0  0  0  0  0  0  0  0  0
    5.6763    2.7556   -1.6596 C   0  0  0  0  0  0  0  0  0  0  0  0
    6.5719    1.8265   -2.1810 C   0  0  0  0  0  0  0  0  0  0  0  0
    6.2686    0.4667   -2.1242 C   0  0  0  0  0  0  0  0  0  0  0  0
    5.0730    0.0407   -1.5350 C   0  0  0  0  0  0  0  0  0  0  0  0
    7.1765   -0.4922   -2.6736 C   0  0  0  0  0  0  0  0  0  0  0  0
    7.9425   -1.2944   -3.1314 C   0  0  0  0  0  0  0  0  0  0  0  0
   -5.6804   -1.3143   -2.3512 H   0  0  0  0  0  0  0  0  0  0  0  0
   -4.3637   -2.4688   -2.0603 H   0  0  0  0  0  0  0  0  0  0  0  0
   -4.5109   -1.6401   -3.6546 H   0  0  0  0  0  0  0  0  0  0  0  0
   -2.0357    0.4471   -2.1562 H   0  0  0  0  0  0  0  0  0  0  0  0
   -2.4708   -0.4420   -3.6113 H   0  0  0  0  0  0  0  0  0  0  0  0
   -2.0980   -2.6036   -2.4266 H   0  0  0  0  0  0  0  0  0  0  0  0
   -0.6454   -1.6355   -2.3952 H   0  0  0  0  0  0  0  0  0  0  0  0
    0.7936   -0.9194   -0.8760 H   0  0  0  0  0  0  0  0  0  0  0  0
   -1.8260    1.2560    2.7077 H   0  0  0  0  0  0  0  0  0  0  0  0
   -5.0126   -0.0007    1.2993 H   0  0  0  0  0  0  0  0  0  0  0  0
   -3.8550    1.2150    1.7584 H   0  0  0  0  0  0  0  0  0  0  0  0
   -3.4306   -0.2015    3.9052 H   0  0  0  0  0  0  0  0  0  0  0  0
   -4.7609   -1.2341    3.4344 H   0  0  0  0  0  0  0  0  0  0  0  0
   -7.2213    1.2276    4.2110 H   0  0  0  0  0  0  0  0  0  0  0  0
   -6.9495   -0.4625    3.7415 H   0  0  0  0  0  0  0  0  0  0  0  0
   -6.7386    0.8604    2.5450 H   0  0  0  0  0  0  0  0  0  0  0  0
    2.1234    3.4429    2.7763 H   0  0  0  0  0  0  0  0  0  0  0  0
    2.9813   -0.5073   -0.2704 H   0  0  0  0  0  0  0  0  0  0  0  0
    3.7948    3.0731   -0.6963 H   0  0  0  0  0  0  0  0  0  0  0  0
    5.8984    3.8188   -1.7125 H   0  0  0  0  0  0  0  0  0  0  0  0
    7.4967    2.1680   -2.6367 H   0  0  0  0  0  0  0  0  0  0  0  0
    4.8469   -1.0227   -1.5132 H   0  0  0  0  0  0  0  0  0  0  0  0
    8.6275   -1.9993   -3.5396 H   0  0  0  0  0  0  0  0  0  0  0  0
  1  2  1  0
  2  3  1  0
  3  4  1  0
  4  5  1  0
  5  6  1  0
  6  7  2  0
  7  8  1  0
  8  9  2  0
  9 10  1  0
 10 11  2  0
 11 12  1  0
 12 13  1  0
 13 14  1  0
 14 15  1  0
 15 16  1  0
  9 17  1  0
 17 18  2  0
 18 19  1  0
 19 20  2  0
 20 21  1  0
 21 22  1  0
 22 23  2  0
 23 24  1  0
 24 25  2  0
 25 26  1  0
 26 27  2  0
 26 28  1  0
 28 29  3  0
 11  6  1  0
 20  8  1  0
 27 22  1  0
  1 30  1  0
  1 31  1  0
  1 32  1  0
  3 33  1  0
  3 34  1  0
  4 35  1  0
  4 36  1  0
  7 37  1  0
 10 38  1  0
 13 39  1  0
 13 40  1  0
 14 41  1  0
 14 42  1  0
 16 43  1  0
 16 44  1  0
 16 45  1  0
 18 46  1  0
 21 47  1  0
 23 48  1  0
 24 49  1  0
 25 50  1  0
 27 51  1  0
 29 52  1  0
M  END
>  <energy_abs>  (58) 
65.01538099029682

>  <SMILES>  (58) 
COCCOc1cc2c(cc1OCCOC)ncnc2Nc3cccc(c3)C#C

>  <cluster_no>  (58) 
58

>  <fda_drugs_id>  (58) 
AAKJLRGGTJKAMG-UHFFFAOYSA-N

>  <initial_conformation_id>  (58) 
247

>  <minimize_method>  (58) 
MMFF

$$$$

     RDKit          3D

 52 54  0  0  0  0  0  0  0  0999 V2000
   -0.8600   -3.1475   -3.1060 C   0  0  0  0  0  0  0  0  0  0  0  0
   -1.0698   -1.7686   -2.8262 O   0  0  0  0  0  0  0  0  0  0  0  0
   -2.4471   -1.4059   -2.9911 C   0  0  0  0  0  0  0  0  0  0  0  0
   -2.6700    0.0549   -2.5890 C   0  0  0  0  0  0  0  0  0  0  0  0
   -2.9666    0.1837   -1.1949 O   0  0  0  0  0  0  0  0  0  0  0  0
   -1.9581    0.2358   -0.2716 C   0  0  0  0  0  0  0  0  0  0  0  0
   -0.5985    0.2579   -0.5742 C   0  0  0  0  0  0  0  0  0  0  0  0
    0.3843    0.2784    0.4468 C   0  0  0  0  0  0  0  0  0  0  0  0
   -0.0196    0.3280    1.7845 C   0  0  0  0  0  0  0  0  0  0  0  0
   -1.3777    0.3251    2.0767 C   0  0  0  0  0  0  0  0  0  0  0  0
   -2.3538    0.2709    1.0754 C   0  0  0  0  0  0  0  0  0  0  0  0
   -3.7074    0.2556    1.3008 O   0  0  0  0  0  0  0  0  0  0  0  0
   -4.1975    0.2559    2.6400 C   0  0  0  0  0  0  0  0  0  0  0  0
   -4.3186    1.6782    3.1887 C   0  0  0  0  0  0  0  0  0  0  0  0
   -4.8194    1.6911    4.5262 O   0  0  0  0  0  0  0  0  0  0  0  0
   -3.8026    1.4871    5.4988 C   0  0  0  0  0  0  0  0  0  0  0  0
    0.8476    0.3765    2.7992 N   0  0  0  0  0  0  0  0  0  0  0  0
    2.1459    0.3742    2.4784 C   0  0  0  0  0  0  0  0  0  0  0  0
    2.6542    0.3139    1.2457 N   0  0  0  0  0  0  0  0  0  0  0  0
    1.7772    0.2536    0.2280 C   0  0  0  0  0  0  0  0  0  0  0  0
    2.2557    0.1487   -1.1070 N   0  0  0  0  0  0  0  0  0  0  0  0
    3.5701    0.3195   -1.5964 C   0  0  0  0  0  0  0  0  0  0  0  0
    3.9192   -0.2787   -2.8185 C   0  0  0  0  0  0  0  0  0  0  0  0
    5.1853   -0.0927   -3.3801 C   0  0  0  0  0  0  0  0  0  0  0  0
    6.1175    0.7186   -2.7380 C   0  0  0  0  0  0  0  0  0  0  0  0
    5.7775    1.3518   -1.5429 C   0  0  0  0  0  0  0  0  0  0  0  0
    4.5077    1.1615   -0.9855 C   0  0  0  0  0  0  0  0  0  0  0  0
    6.7246    2.2053   -0.8925 C   0  0  0  0  0  0  0  0  0  0  0  0
    7.5186    2.9217   -0.3461 C   0  0  0  0  0  0  0  0  0  0  0  0
    0.2041   -3.3647   -2.9803 H   0  0  0  0  0  0  0  0  0  0  0  0
   -1.4282   -3.7701   -2.4084 H   0  0  0  0  0  0  0  0  0  0  0  0
   -1.1451   -3.3772   -4.1371 H   0  0  0  0  0  0  0  0  0  0  0  0
   -2.7005   -1.5292   -4.0500 H   0  0  0  0  0  0  0  0  0  0  0  0
   -3.0762   -2.0680   -2.3851 H   0  0  0  0  0  0  0  0  0  0  0  0
   -1.8584    0.7196   -2.9027 H   0  0  0  0  0  0  0  0  0  0  0  0
   -3.5725    0.4072   -3.1015 H   0  0  0  0  0  0  0  0  0  0  0  0
   -0.2665    0.2598   -1.6060 H   0  0  0  0  0  0  0  0  0  0  0  0
   -1.6461    0.3657    3.1268 H   0  0  0  0  0  0  0  0  0  0  0  0
   -3.6296   -0.4172    3.2912 H   0  0  0  0  0  0  0  0  0  0  0  0
   -5.2025   -0.1828    2.6089 H   0  0  0  0  0  0  0  0  0  0  0  0
   -3.3740    2.2302    3.1233 H   0  0  0  0  0  0  0  0  0  0  0  0
   -5.0315    2.2330    2.5679 H   0  0  0  0  0  0  0  0  0  0  0  0
   -4.2638    1.5281    6.4893 H   0  0  0  0  0  0  0  0  0  0  0  0
   -3.0477    2.2766    5.4350 H   0  0  0  0  0  0  0  0  0  0  0  0
   -3.3336    0.5071    5.3766 H   0  0  0  0  0  0  0  0  0  0  0  0
    2.8547    0.4220    3.2980 H   0  0  0  0  0  0  0  0  0  0  0  0
    1.7852   -0.6272   -1.5644 H   0  0  0  0  0  0  0  0  0  0  0  0
    3.2036   -0.9035   -3.3474 H   0  0  0  0  0  0  0  0  0  0  0  0
    5.4401   -0.5751   -4.3199 H   0  0  0  0  0  0  0  0  0  0  0  0
    7.1011    0.8632   -3.1778 H   0  0  0  0  0  0  0  0  0  0  0  0
    4.2529    1.6862   -0.0687 H   0  0  0  0  0  0  0  0  0  0  0  0
    8.2206    3.5574    0.1407 H   0  0  0  0  0  0  0  0  0  0  0  0
  1  2  1  0
  2  3  1  0
  3  4  1  0
  4  5  1  0
  5  6  1  0
  6  7  2  0
  7  8  1  0
  8  9  2  0
  9 10  1  0
 10 11  2  0
 11 12  1  0
 12 13  1  0
 13 14  1  0
 14 15  1  0
 15 16  1  0
  9 17  1  0
 17 18  2  0
 18 19  1  0
 19 20  2  0
 20 21  1  0
 21 22  1  0
 22 23  2  0
 23 24  1  0
 24 25  2  0
 25 26  1  0
 26 27  2  0
 26 28  1  0
 28 29  3  0
 11  6  1  0
 20  8  1  0
 27 22  1  0
  1 30  1  0
  1 31  1  0
  1 32  1  0
  3 33  1  0
  3 34  1  0
  4 35  1  0
  4 36  1  0
  7 37  1  0
 10 38  1  0
 13 39  1  0
 13 40  1  0
 14 41  1  0
 14 42  1  0
 16 43  1  0
 16 44  1  0
 16 45  1  0
 18 46  1  0
 21 47  1  0
 23 48  1  0
 24 49  1  0
 25 50  1  0
 27 51  1  0
 29 52  1  0
M  END
>  <energy_abs>  (59) 
60.23393913540058

>  <SMILES>  (59) 
COCCOc1cc2c(cc1OCCOC)ncnc2Nc3cccc(c3)C#C

>  <cluster_no>  (59) 
59

>  <fda_drugs_id>  (59) 
AAKJLRGGTJKAMG-UHFFFAOYSA-N

>  <initial_conformation_id>  (59) 
246

>  <minimize_method>  (59) 
MMFF

$$$$

     RDKit          3D

 52 54  0  0  0  0  0  0  0  0999 V2000
   -4.9277   -0.7349   -4.2220 C   0  0  0  0  0  0  0  0  0  0  0  0
   -3.6941   -0.3652   -3.6166 O   0  0  0  0  0  0  0  0  0  0  0  0
   -3.6225   -0.8214   -2.2662 C   0  0  0  0  0  0  0  0  0  0  0  0
   -2.2762   -0.4252   -1.6690 C   0  0  0  0  0  0  0  0  0  0  0  0
   -2.2438   -0.8508   -0.3071 O   0  0  0  0  0  0  0  0  0  0  0  0
   -1.2645   -0.3072    0.4779 C   0  0  0  0  0  0  0  0  0  0  0  0
   -0.0117    0.0680   -0.0143 C   0  0  0  0  0  0  0  0  0  0  0  0
    1.0072    0.5557    0.8484 C   0  0  0  0  0  0  0  0  0  0  0  0
    0.7631    0.6314    2.2251 C   0  0  0  0  0  0  0  0  0  0  0  0
   -0.4807    0.2450    2.7009 C   0  0  0  0  0  0  0  0  0  0  0  0
   -1.4997   -0.2020    1.8512 C   0  0  0  0  0  0  0  0  0  0  0  0
   -2.6587   -0.5533    2.4946 O   0  0  0  0  0  0  0  0  0  0  0  0
   -3.8626   -0.1096    1.8600 C   0  0  0  0  0  0  0  0  0  0  0  0
   -4.9286    0.0950    2.9325 C   0  0  0  0  0  0  0  0  0  0  0  0
   -6.1340    0.5567    2.3221 O   0  0  0  0  0  0  0  0  0  0  0  0
   -7.1619    0.7511    3.2844 C   0  0  0  0  0  0  0  0  0  0  0  0
    1.6791    1.0554    3.0998 N   0  0  0  0  0  0  0  0  0  0  0  0
    2.8691    1.4034    2.6019 C   0  0  0  0  0  0  0  0  0  0  0  0
    3.2228    1.3778    1.3144 N   0  0  0  0  0  0  0  0  0  0  0  0
    2.2931    0.9625    0.4366 C   0  0  0  0  0  0  0  0  0  0  0  0
    2.6008    0.9532   -0.9521 N   0  0  0  0  0  0  0  0  0  0  0  0
    3.8684    1.0526   -1.5715 C   0  0  0  0  0  0  0  0  0  0  0  0
    3.9415    1.5055   -2.8986 C   0  0  0  0  0  0  0  0  0  0  0  0
    5.1601    1.5547   -3.5797 C   0  0  0  0  0  0  0  0  0  0  0  0
    6.3283    1.1345   -2.9474 C   0  0  0  0  0  0  0  0  0  0  0  0
    6.2718    0.6458   -1.6427 C   0  0  0  0  0  0  0  0  0  0  0  0
    5.0456    0.5904   -0.9685 C   0  0  0  0  0  0  0  0  0  0  0  0
    7.4658    0.1865   -0.9998 C   0  0  0  0  0  0  0  0  0  0  0  0
    8.4687   -0.2011   -0.4651 C   0  0  0  0  0  0  0  0  0  0  0  0
   -4.9453   -0.3400   -5.2419 H   0  0  0  0  0  0  0  0  0  0  0  0
   -5.7722   -0.3151   -3.6672 H   0  0  0  0  0  0  0  0  0  0  0  0
   -5.0144   -1.8246   -4.2694 H   0  0  0  0  0  0  0  0  0  0  0  0
   -4.4359   -0.3802   -1.6774 H   0  0  0  0  0  0  0  0  0  0  0  0
   -3.7362   -1.9113   -2.2315 H   0  0  0  0  0  0  0  0  0  0  0  0
   -2.1516    0.6626   -1.7476 H   0  0  0  0  0  0  0  0  0  0  0  0
   -1.4774   -0.9118   -2.2415 H   0  0  0  0  0  0  0  0  0  0  0  0
    0.2177   -0.0577   -1.0688 H   0  0  0  0  0  0  0  0  0  0  0  0
   -0.6704    0.2972    3.7713 H   0  0  0  0  0  0  0  0  0  0  0  0
   -3.7205    0.8310    1.3119 H   0  0  0  0  0  0  0  0  0  0  0  0
   -4.2115   -0.8739    1.1568 H   0  0  0  0  0  0  0  0  0  0  0  0
   -5.1119   -0.8487    3.4613 H   0  0  0  0  0  0  0  0  0  0  0  0
   -4.5788    0.8274    3.6690 H   0  0  0  0  0  0  0  0  0  0  0  0
   -7.4222   -0.2003    3.7582 H   0  0  0  0  0  0  0  0  0  0  0  0
   -6.8519    1.4795    4.0398 H   0  0  0  0  0  0  0  0  0  0  0  0
   -8.0466    1.1375    2.7696 H   0  0  0  0  0  0  0  0  0  0  0  0
    3.6177    1.7412    3.3100 H   0  0  0  0  0  0  0  0  0  0  0  0
    1.9089    1.5129   -1.4400 H   0  0  0  0  0  0  0  0  0  0  0  0
    3.0431    1.8266   -3.4210 H   0  0  0  0  0  0  0  0  0  0  0  0
    5.1981    1.9202   -4.6021 H   0  0  0  0  0  0  0  0  0  0  0  0
    7.2756    1.1759   -3.4795 H   0  0  0  0  0  0  0  0  0  0  0  0
    5.0148    0.1727    0.0356 H   0  0  0  0  0  0  0  0  0  0  0  0
    9.3566   -0.5430    0.0143 H   0  0  0  0  0  0  0  0  0  0  0  0
  1  2  1  0
  2  3  1  0
  3  4  1  0
  4  5  1  0
  5  6  1  0
  6  7  2  0
  7  8  1  0
  8  9  2  0
  9 10  1  0
 10 11  2  0
 11 12  1  0
 12 13  1  0
 13 14  1  0
 14 15  1  0
 15 16  1  0
  9 17  1  0
 17 18  2  0
 18 19  1  0
 19 20  2  0
 20 21  1  0
 21 22  1  0
 22 23  2  0
 23 24  1  0
 24 25  2  0
 25 26  1  0
 26 27  2  0
 26 28  1  0
 28 29  3  0
 11  6  1  0
 20  8  1  0
 27 22  1  0
  1 30  1  0
  1 31  1  0
  1 32  1  0
  3 33  1  0
  3 34  1  0
  4 35  1  0
  4 36  1  0
  7 37  1  0
 10 38  1  0
 13 39  1  0
 13 40  1  0
 14 41  1  0
 14 42  1  0
 16 43  1  0
 16 44  1  0
 16 45  1  0
 18 46  1  0
 21 47  1  0
 23 48  1  0
 24 49  1  0
 25 50  1  0
 27 51  1  0
 29 52  1  0
M  END
>  <energy_abs>  (60) 
55.37797115419901

>  <SMILES>  (60) 
COCCOc1cc2c(cc1OCCOC)ncnc2Nc3cccc(c3)C#C

>  <cluster_no>  (60) 
60

>  <fda_drugs_id>  (60) 
AAKJLRGGTJKAMG-UHFFFAOYSA-N

>  <initial_conformation_id>  (60) 
244

>  <minimize_method>  (60) 
MMFF

$$$$

     RDKit          3D

 52 54  0  0  0  0  0  0  0  0999 V2000
   -3.2160   -1.5688   -5.0433 C   0  0  0  0  0  0  0  0  0  0  0  0
   -3.4416   -0.6654   -3.9674 O   0  0  0  0  0  0  0  0  0  0  0  0
   -2.2288   -0.0503   -3.5261 C   0  0  0  0  0  0  0  0  0  0  0  0
   -2.5070    0.7981   -2.2774 C   0  0  0  0  0  0  0  0  0  0  0  0
   -2.6865   -0.0509   -1.1291 O   0  0  0  0  0  0  0  0  0  0  0  0
   -1.7113    0.0200   -0.1685 C   0  0  0  0  0  0  0  0  0  0  0  0
   -0.3499    0.0272   -0.4778 C   0  0  0  0  0  0  0  0  0  0  0  0
    0.6285    0.0629    0.5477 C   0  0  0  0  0  0  0  0  0  0  0  0
    0.2176    0.0984    1.8863 C   0  0  0  0  0  0  0  0  0  0  0  0
   -1.1420    0.0616    2.1762 C   0  0  0  0  0  0  0  0  0  0  0  0
   -2.1160    0.0057    1.1726 C   0  0  0  0  0  0  0  0  0  0  0  0
   -3.4680   -0.0192    1.3955 O   0  0  0  0  0  0  0  0  0  0  0  0
   -3.9442   -0.3119    2.7082 C   0  0  0  0  0  0  0  0  0  0  0  0
   -4.2095    0.9708    3.4924 C   0  0  0  0  0  0  0  0  0  0  0  0
   -4.6169    0.6348    4.8193 O   0  0  0  0  0  0  0  0  0  0  0  0
   -4.9211    1.8010    5.5788 C   0  0  0  0  0  0  0  0  0  0  0  0
    1.0807    0.1620    2.9040 N   0  0  0  0  0  0  0  0  0  0  0  0
    2.3800    0.1900    2.5917 C   0  0  0  0  0  0  0  0  0  0  0  0
    2.8946    0.1482    1.3604 N   0  0  0  0  0  0  0  0  0  0  0  0
    2.0233    0.0751    0.3384 C   0  0  0  0  0  0  0  0  0  0  0  0
    2.5143   -0.0173   -0.9939 N   0  0  0  0  0  0  0  0  0  0  0  0
    3.8276    0.2231   -1.4633 C   0  0  0  0  0  0  0  0  0  0  0  0
    4.2294   -0.3635   -2.6758 C   0  0  0  0  0  0  0  0  0  0  0  0
    5.4924   -0.1089   -3.2181 C   0  0  0  0  0  0  0  0  0  0  0  0
    6.3673    0.7576   -2.5644 C   0  0  0  0  0  0  0  0  0  0  0  0
    5.9684    1.3855   -1.3856 C   0  0  0  0  0  0  0  0  0  0  0  0
    4.7012    1.1300   -0.8496 C   0  0  0  0  0  0  0  0  0  0  0  0
    6.8547    2.2974   -0.7272 C   0  0  0  0  0  0  0  0  0  0  0  0
    7.5977    3.0615   -0.1749 C   0  0  0  0  0  0  0  0  0  0  0  0
   -2.5573   -2.3846   -4.7231 H   0  0  0  0  0  0  0  0  0  0  0  0
   -4.1767   -1.9881   -5.3484 H   0  0  0  0  0  0  0  0  0  0  0  0
   -2.7784   -1.0452   -5.9010 H   0  0  0  0  0  0  0  0  0  0  0  0
   -1.8575    0.5935   -4.3319 H   0  0  0  0  0  0  0  0  0  0  0  0
   -1.4881   -0.8306   -3.3049 H   0  0  0  0  0  0  0  0  0  0  0  0
   -1.7165    1.5430   -2.1224 H   0  0  0  0  0  0  0  0  0  0  0  0
   -3.4466    1.3515   -2.4092 H   0  0  0  0  0  0  0  0  0  0  0  0
   -0.0327    0.0021   -1.5156 H   0  0  0  0  0  0  0  0  0  0  0  0
   -1.4161    0.0908    3.2268 H   0  0  0  0  0  0  0  0  0  0  0  0
   -4.8961   -0.8445    2.5888 H   0  0  0  0  0  0  0  0  0  0  0  0
   -3.3019   -1.0157    3.2513 H   0  0  0  0  0  0  0  0  0  0  0  0
   -4.9947    1.5521    2.9906 H   0  0  0  0  0  0  0  0  0  0  0  0
   -3.3099    1.5976    3.5294 H   0  0  0  0  0  0  0  0  0  0  0  0
   -5.2053    1.4875    6.5874 H   0  0  0  0  0  0  0  0  0  0  0  0
   -5.7636    2.3424    5.1277 H   0  0  0  0  0  0  0  0  0  0  0  0
   -4.0427    2.4583    5.6495 H   0  0  0  0  0  0  0  0  0  0  0  0
    3.0831    0.2471    3.4160 H   0  0  0  0  0  0  0  0  0  0  0  0
    2.1243   -0.8528   -1.4175 H   0  0  0  0  0  0  0  0  0  0  0  0
    3.5600   -1.0296   -3.2131 H   0  0  0  0  0  0  0  0  0  0  0  0
    5.7922   -0.5841   -4.1483 H   0  0  0  0  0  0  0  0  0  0  0  0
    7.3514    0.9501   -2.9848 H   0  0  0  0  0  0  0  0  0  0  0  0
    4.3997    1.6498    0.0564 H   0  0  0  0  0  0  0  0  0  0  0  0
    8.2636    3.7272    0.3245 H   0  0  0  0  0  0  0  0  0  0  0  0
  1  2  1  0
  2  3  1  0
  3  4  1  0
  4  5  1  0
  5  6  1  0
  6  7  2  0
  7  8  1  0
  8  9  2  0
  9 10  1  0
 10 11  2  0
 11 12  1  0
 12 13  1  0
 13 14  1  0
 14 15  1  0
 15 16  1  0
  9 17  1  0
 17 18  2  0
 18 19  1  0
 19 20  2  0
 20 21  1  0
 21 22  1  0
 22 23  2  0
 23 24  1  0
 24 25  2  0
 25 26  1  0
 26 27  2  0
 26 28  1  0
 28 29  3  0
 11  6  1  0
 20  8  1  0
 27 22  1  0
  1 30  1  0
  1 31  1  0
  1 32  1  0
  3 33  1  0
  3 34  1  0
  4 35  1  0
  4 36  1  0
  7 37  1  0
 10 38  1  0
 13 39  1  0
 13 40  1  0
 14 41  1  0
 14 42  1  0
 16 43  1  0
 16 44  1  0
 16 45  1  0
 18 46  1  0
 21 47  1  0
 23 48  1  0
 24 49  1  0
 25 50  1  0
 27 51  1  0
 29 52  1  0
M  END
>  <energy_abs>  (61) 
62.207324135733046

>  <SMILES>  (61) 
COCCOc1cc2c(cc1OCCOC)ncnc2Nc3cccc(c3)C#C

>  <cluster_no>  (61) 
61

>  <fda_drugs_id>  (61) 
AAKJLRGGTJKAMG-UHFFFAOYSA-N

>  <initial_conformation_id>  (61) 
243

>  <minimize_method>  (61) 
MMFF

$$$$

     RDKit          3D

 52 54  0  0  0  0  0  0  0  0999 V2000
   -4.9007   -1.3326   -4.0902 C   0  0  0  0  0  0  0  0  0  0  0  0
   -3.6796   -1.1549   -3.3834 O   0  0  0  0  0  0  0  0  0  0  0  0
   -3.7752   -1.6450   -2.0397 C   0  0  0  0  0  0  0  0  0  0  0  0
   -2.4654   -1.3772   -1.2982 C   0  0  0  0  0  0  0  0  0  0  0  0
   -2.3356    0.0409   -1.0824 O   0  0  0  0  0  0  0  0  0  0  0  0
   -1.4185    0.2865   -0.0985 C   0  0  0  0  0  0  0  0  0  0  0  0
   -0.1092    0.5841   -0.4614 C   0  0  0  0  0  0  0  0  0  0  0  0
    0.8597    0.8754    0.5318 C   0  0  0  0  0  0  0  0  0  0  0  0
    0.4833    0.8666    1.8869 C   0  0  0  0  0  0  0  0  0  0  0  0
   -0.8337    0.5764    2.2216 C   0  0  0  0  0  0  0  0  0  0  0  0
   -1.7900    0.3078    1.2416 C   0  0  0  0  0  0  0  0  0  0  0  0
   -3.0651   -0.0401    1.5947 O   0  0  0  0  0  0  0  0  0  0  0  0
   -3.8118    1.0787    2.1103 C   0  0  0  0  0  0  0  0  0  0  0  0
   -4.5231    0.6512    3.3962 C   0  0  0  0  0  0  0  0  0  0  0  0
   -5.5912   -0.2483    3.0826 O   0  0  0  0  0  0  0  0  0  0  0  0
   -6.2029   -0.7596    4.2617 C   0  0  0  0  0  0  0  0  0  0  0  0
    1.3419    1.1219    2.8770 N   0  0  0  0  0  0  0  0  0  0  0  0
    2.6064    1.3753    2.5222 C   0  0  0  0  0  0  0  0  0  0  0  0
    3.0871    1.4040    1.2756 N   0  0  0  0  0  0  0  0  0  0  0  0
    2.2162    1.1649    0.2783 C   0  0  0  0  0  0  0  0  0  0  0  0
    2.6716    1.2076   -1.0677 N   0  0  0  0  0  0  0  0  0  0  0  0
    4.0030    1.1935   -1.5442 C   0  0  0  0  0  0  0  0  0  0  0  0
    4.2851    1.7589   -2.7988 C   0  0  0  0  0  0  0  0  0  0  0  0
    5.5739    1.7129   -3.3396 C   0  0  0  0  0  0  0  0  0  0  0  0
    6.5986    1.0760   -2.6428 C   0  0  0  0  0  0  0  0  0  0  0  0
    6.3309    0.4777   -1.4112 C   0  0  0  0  0  0  0  0  0  0  0  0
    5.0393    0.5301   -0.8729 C   0  0  0  0  0  0  0  0  0  0  0  0
    7.3744   -0.2024   -0.7053 C   0  0  0  0  0  0  0  0  0  0  0  0
    8.2491   -0.7758   -0.1148 C   0  0  0  0  0  0  0  0  0  0  0  0
   -5.7337   -0.8699   -3.5497 H   0  0  0  0  0  0  0  0  0  0  0  0
   -5.0976   -2.3980   -4.2429 H   0  0  0  0  0  0  0  0  0  0  0  0
   -4.8138   -0.8450   -5.0676 H   0  0  0  0  0  0  0  0  0  0  0  0
   -4.6061   -1.1413   -1.5276 H   0  0  0  0  0  0  0  0  0  0  0  0
   -3.9663   -2.7252   -2.0692 H   0  0  0  0  0  0  0  0  0  0  0  0
   -1.6107   -1.7132   -1.9018 H   0  0  0  0  0  0  0  0  0  0  0  0
   -2.4824   -1.9269   -0.3475 H   0  0  0  0  0  0  0  0  0  0  0  0
    0.1565    0.5625   -1.5163 H   0  0  0  0  0  0  0  0  0  0  0  0
   -1.1146    0.5470    3.2720 H   0  0  0  0  0  0  0  0  0  0  0  0
   -3.1744    1.9465    2.3209 H   0  0  0  0  0  0  0  0  0  0  0  0
   -4.5424    1.3637    1.3436 H   0  0  0  0  0  0  0  0  0  0  0  0
   -3.8111    0.1506    4.0658 H   0  0  0  0  0  0  0  0  0  0  0  0
   -4.9438    1.5301    3.9003 H   0  0  0  0  0  0  0  0  0  0  0  0
   -6.6834    0.0480    4.8245 H   0  0  0  0  0  0  0  0  0  0  0  0
   -6.9670   -1.4918    3.9713 H   0  0  0  0  0  0  0  0  0  0  0  0
   -5.4575   -1.2690    4.8865 H   0  0  0  0  0  0  0  0  0  0  0  0
    3.3093    1.5772    3.3233 H   0  0  0  0  0  0  0  0  0  0  0  0
    2.0859    1.8448   -1.5986 H   0  0  0  0  0  0  0  0  0  0  0  0
    3.5003    2.2489   -3.3697 H   0  0  0  0  0  0  0  0  0  0  0  0
    5.7765    2.1687   -4.3057 H   0  0  0  0  0  0  0  0  0  0  0  0
    7.5999    1.0386   -3.0671 H   0  0  0  0  0  0  0  0  0  0  0  0
    4.8427    0.0360    0.0760 H   0  0  0  0  0  0  0  0  0  0  0  0
    9.0237   -1.2867    0.4084 H   0  0  0  0  0  0  0  0  0  0  0  0
  1  2  1  0
  2  3  1  0
  3  4  1  0
  4  5  1  0
  5  6  1  0
  6  7  2  0
  7  8  1  0
  8  9  2  0
  9 10  1  0
 10 11  2  0
 11 12  1  0
 12 13  1  0
 13 14  1  0
 14 15  1  0
 15 16  1  0
  9 17  1  0
 17 18  2  0
 18 19  1  0
 19 20  2  0
 20 21  1  0
 21 22  1  0
 22 23  2  0
 23 24  1  0
 24 25  2  0
 25 26  1  0
 26 27  2  0
 26 28  1  0
 28 29  3  0
 11  6  1  0
 20  8  1  0
 27 22  1  0
  1 30  1  0
  1 31  1  0
  1 32  1  0
  3 33  1  0
  3 34  1  0
  4 35  1  0
  4 36  1  0
  7 37  1  0
 10 38  1  0
 13 39  1  0
 13 40  1  0
 14 41  1  0
 14 42  1  0
 16 43  1  0
 16 44  1  0
 16 45  1  0
 18 46  1  0
 21 47  1  0
 23 48  1  0
 24 49  1  0
 25 50  1  0
 27 51  1  0
 29 52  1  0
M  END
>  <energy_abs>  (62) 
60.160616005492706

>  <SMILES>  (62) 
COCCOc1cc2c(cc1OCCOC)ncnc2Nc3cccc(c3)C#C

>  <cluster_no>  (62) 
62

>  <fda_drugs_id>  (62) 
AAKJLRGGTJKAMG-UHFFFAOYSA-N

>  <initial_conformation_id>  (62) 
242

>  <minimize_method>  (62) 
MMFF

$$$$

     RDKit          3D

 52 54  0  0  0  0  0  0  0  0999 V2000
   -5.4505   -0.3511   -2.8794 C   0  0  0  0  0  0  0  0  0  0  0  0
   -4.5048   -1.3529   -3.2357 O   0  0  0  0  0  0  0  0  0  0  0  0
   -3.6868   -1.7612   -2.1395 C   0  0  0  0  0  0  0  0  0  0  0  0
   -2.5265   -0.7977   -1.8908 C   0  0  0  0  0  0  0  0  0  0  0  0
   -1.7285   -1.3059   -0.8103 O   0  0  0  0  0  0  0  0  0  0  0  0
   -1.1934   -0.2873   -0.0733 C   0  0  0  0  0  0  0  0  0  0  0  0
    0.1675   -0.0321   -0.1982 C   0  0  0  0  0  0  0  0  0  0  0  0
    0.7732    1.0197    0.5374 C   0  0  0  0  0  0  0  0  0  0  0  0
   -0.0101    1.7857    1.4170 C   0  0  0  0  0  0  0  0  0  0  0  0
   -1.3622    1.4955    1.5420 C   0  0  0  0  0  0  0  0  0  0  0  0
   -1.9513    0.4533    0.8281 C   0  0  0  0  0  0  0  0  0  0  0  0
   -3.2909    0.2338    1.0067 O   0  0  0  0  0  0  0  0  0  0  0  0
   -3.5093   -0.9382    1.8123 C   0  0  0  0  0  0  0  0  0  0  0  0
   -4.9536   -0.9220    2.3209 C   0  0  0  0  0  0  0  0  0  0  0  0
   -5.2113    0.1556    3.2275 O   0  0  0  0  0  0  0  0  0  0  0  0
   -4.7202   -0.0795    4.5401 C   0  0  0  0  0  0  0  0  0  0  0  0
    0.4921    2.7839    2.1464 N   0  0  0  0  0  0  0  0  0  0  0  0
    1.7993    3.0272    2.0135 C   0  0  0  0  0  0  0  0  0  0  0  0
    2.6457    2.3731    1.2165 N   0  0  0  0  0  0  0  0  0  0  0  0
    2.1358    1.3788    0.4667 C   0  0  0  0  0  0  0  0  0  0  0  0
    2.9832    0.6732   -0.4323 N   0  0  0  0  0  0  0  0  0  0  0  0
    4.3948    0.6969   -0.5221 C   0  0  0  0  0  0  0  0  0  0  0  0
    5.2243    0.9482    0.5776 C   0  0  0  0  0  0  0  0  0  0  0  0
    6.6167    0.8983    0.4606 C   0  0  0  0  0  0  0  0  0  0  0  0
    7.2035    0.5642   -0.7576 C   0  0  0  0  0  0  0  0  0  0  0  0
    6.3965    0.2685   -1.8548 C   0  0  0  0  0  0  0  0  0  0  0  0
    5.0032    0.3234   -1.7319 C   0  0  0  0  0  0  0  0  0  0  0  0
    6.9916   -0.0962   -3.1047 C   0  0  0  0  0  0  0  0  0  0  0  0
    7.4906   -0.4011   -4.1536 C   0  0  0  0  0  0  0  0  0  0  0  0
   -6.0620   -0.1338   -3.7584 H   0  0  0  0  0  0  0  0  0  0  0  0
   -6.1072   -0.7092   -2.0809 H   0  0  0  0  0  0  0  0  0  0  0  0
   -4.9521    0.5721   -2.5709 H   0  0  0  0  0  0  0  0  0  0  0  0
   -4.2908   -1.8999   -1.2331 H   0  0  0  0  0  0  0  0  0  0  0  0
   -3.2794   -2.7491   -2.3870 H   0  0  0  0  0  0  0  0  0  0  0  0
   -2.9077    0.2130   -1.7023 H   0  0  0  0  0  0  0  0  0  0  0  0
   -1.8986   -0.7361   -2.7885 H   0  0  0  0  0  0  0  0  0  0  0  0
    0.7557   -0.6564   -0.8652 H   0  0  0  0  0  0  0  0  0  0  0  0
   -1.9723    2.0877    2.2200 H   0  0  0  0  0  0  0  0  0  0  0  0
   -3.3654   -1.8321    1.1938 H   0  0  0  0  0  0  0  0  0  0  0  0
   -2.8054   -0.9650    2.6527 H   0  0  0  0  0  0  0  0  0  0  0  0
   -5.2126   -1.8752    2.7944 H   0  0  0  0  0  0  0  0  0  0  0  0
   -5.6305   -0.7755    1.4710 H   0  0  0  0  0  0  0  0  0  0  0  0
   -3.6283   -0.1344    4.5488 H   0  0  0  0  0  0  0  0  0  0  0  0
   -5.0234    0.7609    5.1723 H   0  0  0  0  0  0  0  0  0  0  0  0
   -5.1499   -0.9971    4.9537 H   0  0  0  0  0  0  0  0  0  0  0  0
    2.2126    3.8331    2.6115 H   0  0  0  0  0  0  0  0  0  0  0  0
    2.5611    0.6832   -1.3552 H   0  0  0  0  0  0  0  0  0  0  0  0
    4.7970    1.1847    1.5479 H   0  0  0  0  0  0  0  0  0  0  0  0
    7.2392    1.1136    1.3255 H   0  0  0  0  0  0  0  0  0  0  0  0
    8.2864    0.5263   -0.8409 H   0  0  0  0  0  0  0  0  0  0  0  0
    4.3899    0.0743   -2.5946 H   0  0  0  0  0  0  0  0  0  0  0  0
    7.9357   -0.6739   -5.0827 H   0  0  0  0  0  0  0  0  0  0  0  0
  1  2  1  0
  2  3  1  0
  3  4  1  0
  4  5  1  0
  5  6  1  0
  6  7  2  0
  7  8  1  0
  8  9  2  0
  9 10  1  0
 10 11  2  0
 11 12  1  0
 12 13  1  0
 13 14  1  0
 14 15  1  0
 15 16  1  0
  9 17  1  0
 17 18  2  0
 18 19  1  0
 19 20  2  0
 20 21  1  0
 21 22  1  0
 22 23  2  0
 23 24  1  0
 24 25  2  0
 25 26  1  0
 26 27  2  0
 26 28  1  0
 28 29  3  0
 11  6  1  0
 20  8  1  0
 27 22  1  0
  1 30  1  0
  1 31  1  0
  1 32  1  0
  3 33  1  0
  3 34  1  0
  4 35  1  0
  4 36  1  0
  7 37  1  0
 10 38  1  0
 13 39  1  0
 13 40  1  0
 14 41  1  0
 14 42  1  0
 16 43  1  0
 16 44  1  0
 16 45  1  0
 18 46  1  0
 21 47  1  0
 23 48  1  0
 24 49  1  0
 25 50  1  0
 27 51  1  0
 29 52  1  0
M  END
>  <energy_abs>  (63) 
59.958419017586984

>  <SMILES>  (63) 
COCCOc1cc2c(cc1OCCOC)ncnc2Nc3cccc(c3)C#C

>  <cluster_no>  (63) 
63

>  <fda_drugs_id>  (63) 
AAKJLRGGTJKAMG-UHFFFAOYSA-N

>  <initial_conformation_id>  (63) 
241

>  <minimize_method>  (63) 
MMFF

$$$$

     RDKit          3D

 52 54  0  0  0  0  0  0  0  0999 V2000
   -2.9643   -2.5352   -4.3295 C   0  0  0  0  0  0  0  0  0  0  0  0
   -3.4398   -1.2046   -4.1734 O   0  0  0  0  0  0  0  0  0  0  0  0
   -3.6830   -0.8554   -2.8109 C   0  0  0  0  0  0  0  0  0  0  0  0
   -2.4091   -0.3918   -2.1055 C   0  0  0  0  0  0  0  0  0  0  0  0
   -2.7386   -0.0323   -0.7645 O   0  0  0  0  0  0  0  0  0  0  0  0
   -1.7490    0.4966    0.0171 C   0  0  0  0  0  0  0  0  0  0  0  0
   -0.4126    0.6263   -0.3620 C   0  0  0  0  0  0  0  0  0  0  0  0
    0.5493    1.2123    0.5079 C   0  0  0  0  0  0  0  0  0  0  0  0
    0.1554    1.6564    1.7770 C   0  0  0  0  0  0  0  0  0  0  0  0
   -1.1749    1.5265    2.1418 C   0  0  0  0  0  0  0  0  0  0  0  0
   -2.1157    0.9408    1.2906 C   0  0  0  0  0  0  0  0  0  0  0  0
   -3.4013    0.8965    1.7657 O   0  0  0  0  0  0  0  0  0  0  0  0
   -3.9053   -0.4426    1.8740 C   0  0  0  0  0  0  0  0  0  0  0  0
   -4.7564   -0.5483    3.1426 C   0  0  0  0  0  0  0  0  0  0  0  0
   -4.0095   -0.3572    4.3490 O   0  0  0  0  0  0  0  0  0  0  0  0
   -3.1567   -1.4451    4.6729 C   0  0  0  0  0  0  0  0  0  0  0  0
    1.0086    2.1958    2.6516 N   0  0  0  0  0  0  0  0  0  0  0  0
    2.2844    2.2927    2.2664 C   0  0  0  0  0  0  0  0  0  0  0  0
    2.7816    1.9133    1.0871 N   0  0  0  0  0  0  0  0  0  0  0  0
    1.9159    1.3852    0.2041 C   0  0  0  0  0  0  0  0  0  0  0  0
    2.3804    1.0149   -1.0889 N   0  0  0  0  0  0  0  0  0  0  0  0
    3.7161    0.8318   -1.5168 C   0  0  0  0  0  0  0  0  0  0  0  0
    4.0186    0.9739   -2.8807 C   0  0  0  0  0  0  0  0  0  0  0  0
    5.3084    0.7362   -3.3634 C   0  0  0  0  0  0  0  0  0  0  0  0
    6.3127    0.3254   -2.4901 C   0  0  0  0  0  0  0  0  0  0  0  0
    6.0228    0.1416   -1.1385 C   0  0  0  0  0  0  0  0  0  0  0  0
    4.7296    0.3818   -0.6607 C   0  0  0  0  0  0  0  0  0  0  0  0
    7.0464   -0.3036   -0.2427 C   0  0  0  0  0  0  0  0  0  0  0  0
    7.9048   -0.6775    0.5092 C   0  0  0  0  0  0  0  0  0  0  0  0
   -2.8293   -2.7269   -5.3974 H   0  0  0  0  0  0  0  0  0  0  0  0
   -2.0004   -2.6680   -3.8312 H   0  0  0  0  0  0  0  0  0  0  0  0
   -3.6938   -3.2512   -3.9389 H   0  0  0  0  0  0  0  0  0  0  0  0
   -4.4078   -0.0331   -2.8083 H   0  0  0  0  0  0  0  0  0  0  0  0
   -4.1609   -1.6817   -2.2700 H   0  0  0  0  0  0  0  0  0  0  0  0
   -1.6705   -1.2011   -2.1054 H   0  0  0  0  0  0  0  0  0  0  0  0
   -1.9945    0.4657   -2.6502 H   0  0  0  0  0  0  0  0  0  0  0  0
   -0.0780    0.2659   -1.3294 H   0  0  0  0  0  0  0  0  0  0  0  0
   -1.4941    1.8773    3.1211 H   0  0  0  0  0  0  0  0  0  0  0  0
   -3.0985   -1.1847    1.8953 H   0  0  0  0  0  0  0  0  0  0  0  0
   -4.5423   -0.6398    1.0048 H   0  0  0  0  0  0  0  0  0  0  0  0
   -5.2754   -1.5127    3.1821 H   0  0  0  0  0  0  0  0  0  0  0  0
   -5.5182    0.2388    3.1289 H   0  0  0  0  0  0  0  0  0  0  0  0
   -2.7335   -1.2624    5.6646 H   0  0  0  0  0  0  0  0  0  0  0  0
   -2.3305   -1.5192    3.9613 H   0  0  0  0  0  0  0  0  0  0  0  0
   -3.7179   -2.3839    4.7033 H   0  0  0  0  0  0  0  0  0  0  0  0
    2.9813    2.7231    2.9773 H   0  0  0  0  0  0  0  0  0  0  0  0
    1.8414    1.5277   -1.7797 H   0  0  0  0  0  0  0  0  0  0  0  0
    3.2499    1.2792   -3.5861 H   0  0  0  0  0  0  0  0  0  0  0  0
    5.5270    0.8663   -4.4200 H   0  0  0  0  0  0  0  0  0  0  0  0
    7.3147    0.1400   -2.8690 H   0  0  0  0  0  0  0  0  0  0  0  0
    4.5164    0.2089    0.3911 H   0  0  0  0  0  0  0  0  0  0  0  0
    8.6645   -1.0083    1.1780 H   0  0  0  0  0  0  0  0  0  0  0  0
  1  2  1  0
  2  3  1  0
  3  4  1  0
  4  5  1  0
  5  6  1  0
  6  7  2  0
  7  8  1  0
  8  9  2  0
  9 10  1  0
 10 11  2  0
 11 12  1  0
 12 13  1  0
 13 14  1  0
 14 15  1  0
 15 16  1  0
  9 17  1  0
 17 18  2  0
 18 19  1  0
 19 20  2  0
 20 21  1  0
 21 22  1  0
 22 23  2  0
 23 24  1  0
 24 25  2  0
 25 26  1  0
 26 27  2  0
 26 28  1  0
 28 29  3  0
 11  6  1  0
 20  8  1  0
 27 22  1  0
  1 30  1  0
  1 31  1  0
  1 32  1  0
  3 33  1  0
  3 34  1  0
  4 35  1  0
  4 36  1  0
  7 37  1  0
 10 38  1  0
 13 39  1  0
 13 40  1  0
 14 41  1  0
 14 42  1  0
 16 43  1  0
 16 44  1  0
 16 45  1  0
 18 46  1  0
 21 47  1  0
 23 48  1  0
 24 49  1  0
 25 50  1  0
 27 51  1  0
 29 52  1  0
M  END
>  <energy_abs>  (64) 
60.45808383846962

>  <SMILES>  (64) 
COCCOc1cc2c(cc1OCCOC)ncnc2Nc3cccc(c3)C#C

>  <cluster_no>  (64) 
64

>  <fda_drugs_id>  (64) 
AAKJLRGGTJKAMG-UHFFFAOYSA-N

>  <initial_conformation_id>  (64) 
240

>  <minimize_method>  (64) 
MMFF

$$$$

     RDKit          3D

 52 54  0  0  0  0  0  0  0  0999 V2000
   -4.8557   -2.5006   -3.5978 C   0  0  0  0  0  0  0  0  0  0  0  0
   -3.6716   -2.0487   -2.9552 O   0  0  0  0  0  0  0  0  0  0  0  0
   -3.3556   -0.7005   -3.3168 C   0  0  0  0  0  0  0  0  0  0  0  0
   -2.1328   -0.2334   -2.5262 C   0  0  0  0  0  0  0  0  0  0  0  0
   -2.5444    0.0864   -1.1943 O   0  0  0  0  0  0  0  0  0  0  0  0
   -1.5835    0.4619   -0.2914 C   0  0  0  0  0  0  0  0  0  0  0  0
   -0.2352    0.6500   -0.5990 C   0  0  0  0  0  0  0  0  0  0  0  0
    0.6954    1.0389    0.3987 C   0  0  0  0  0  0  0  0  0  0  0  0
    0.2554    1.2157    1.7155 C   0  0  0  0  0  0  0  0  0  0  0  0
   -1.0908    1.0322    2.0070 C   0  0  0  0  0  0  0  0  0  0  0  0
   -2.0198    0.6670    1.0274 C   0  0  0  0  0  0  0  0  0  0  0  0
   -3.3596    0.4756    1.2476 O   0  0  0  0  0  0  0  0  0  0  0  0
   -3.8981    0.6704    2.5527 C   0  0  0  0  0  0  0  0  0  0  0  0
   -3.7858   -0.5986    3.3983 C   0  0  0  0  0  0  0  0  0  0  0  0
   -4.2936   -0.4058    4.7193 O   0  0  0  0  0  0  0  0  0  0  0  0
   -5.7069   -0.5382    4.7949 C   0  0  0  0  0  0  0  0  0  0  0  0
    1.0777    1.5558    2.7111 N   0  0  0  0  0  0  0  0  0  0  0  0
    2.3675    1.7169    2.3997 C   0  0  0  0  0  0  0  0  0  0  0  0
    2.9058    1.5873    1.1856 N   0  0  0  0  0  0  0  0  0  0  0  0
    2.0722    1.2583    0.1832 C   0  0  0  0  0  0  0  0  0  0  0  0
    2.5830    1.1550   -1.1404 N   0  0  0  0  0  0  0  0  0  0  0  0
    3.9327    1.0574   -1.5513 C   0  0  0  0  0  0  0  0  0  0  0  0
    4.2795    1.4659   -2.8492 C   0  0  0  0  0  0  0  0  0  0  0  0
    5.5860    1.3266   -3.3257 C   0  0  0  0  0  0  0  0  0  0  0  0
    6.5630    0.7501   -2.5176 C   0  0  0  0  0  0  0  0  0  0  0  0
    6.2295    0.3035   -1.2394 C   0  0  0  0  0  0  0  0  0  0  0  0
    4.9199    0.4463   -0.7673 C   0  0  0  0  0  0  0  0  0  0  0  0
    7.2251   -0.3114   -0.4153 C   0  0  0  0  0  0  0  0  0  0  0  0
    8.0597   -0.8295    0.2754 C   0  0  0  0  0  0  0  0  0  0  0  0
   -5.0423   -3.5331   -3.2901 H   0  0  0  0  0  0  0  0  0  0  0  0
   -5.7118   -1.8876   -3.2993 H   0  0  0  0  0  0  0  0  0  0  0  0
   -4.7347   -2.4757   -4.6851 H   0  0  0  0  0  0  0  0  0  0  0  0
   -3.1298   -0.6744   -4.3883 H   0  0  0  0  0  0  0  0  0  0  0  0
   -4.2153   -0.0546   -3.1049 H   0  0  0  0  0  0  0  0  0  0  0  0
   -1.3813   -1.0314   -2.5061 H   0  0  0  0  0  0  0  0  0  0  0  0
   -1.7299    0.6681   -3.0018 H   0  0  0  0  0  0  0  0  0  0  0  0
    0.1267    0.4825   -1.6077 H   0  0  0  0  0  0  0  0  0  0  0  0
   -1.3876    1.1794    3.0408 H   0  0  0  0  0  0  0  0  0  0  0  0
   -4.9584    0.9085    2.4112 H   0  0  0  0  0  0  0  0  0  0  0  0
   -3.4862    1.5513    3.0584 H   0  0  0  0  0  0  0  0  0  0  0  0
   -4.2786   -1.4464    2.9068 H   0  0  0  0  0  0  0  0  0  0  0  0
   -2.7335   -0.8830    3.5002 H   0  0  0  0  0  0  0  0  0  0  0  0
   -6.0170   -1.5355    4.4684 H   0  0  0  0  0  0  0  0  0  0  0  0
   -6.2054    0.2279    4.1947 H   0  0  0  0  0  0  0  0  0  0  0  0
   -6.0069   -0.4066    5.8383 H   0  0  0  0  0  0  0  0  0  0  0  0
    3.0394    1.9819    3.2088 H   0  0  0  0  0  0  0  0  0  0  0  0
    2.0610    1.7888   -1.7364 H   0  0  0  0  0  0  0  0  0  0  0  0
    3.5327    1.9041   -3.5062 H   0  0  0  0  0  0  0  0  0  0  0  0
    5.8387    1.6618   -4.3281 H   0  0  0  0  0  0  0  0  0  0  0  0
    7.5778    0.6411   -2.8920 H   0  0  0  0  0  0  0  0  0  0  0  0
    4.6730    0.0682    0.2214 H   0  0  0  0  0  0  0  0  0  0  0  0
    8.7973   -1.2917    0.8887 H   0  0  0  0  0  0  0  0  0  0  0  0
  1  2  1  0
  2  3  1  0
  3  4  1  0
  4  5  1  0
  5  6  1  0
  6  7  2  0
  7  8  1  0
  8  9  2  0
  9 10  1  0
 10 11  2  0
 11 12  1  0
 12 13  1  0
 13 14  1  0
 14 15  1  0
 15 16  1  0
  9 17  1  0
 17 18  2  0
 18 19  1  0
 19 20  2  0
 20 21  1  0
 21 22  1  0
 22 23  2  0
 23 24  1  0
 24 25  2  0
 25 26  1  0
 26 27  2  0
 26 28  1  0
 28 29  3  0
 11  6  1  0
 20  8  1  0
 27 22  1  0
  1 30  1  0
  1 31  1  0
  1 32  1  0
  3 33  1  0
  3 34  1  0
  4 35  1  0
  4 36  1  0
  7 37  1  0
 10 38  1  0
 13 39  1  0
 13 40  1  0
 14 41  1  0
 14 42  1  0
 16 43  1  0
 16 44  1  0
 16 45  1  0
 18 46  1  0
 21 47  1  0
 23 48  1  0
 24 49  1  0
 25 50  1  0
 27 51  1  0
 29 52  1  0
M  END
>  <energy_abs>  (65) 
61.29674747768472

>  <SMILES>  (65) 
COCCOc1cc2c(cc1OCCOC)ncnc2Nc3cccc(c3)C#C

>  <cluster_no>  (65) 
65

>  <fda_drugs_id>  (65) 
AAKJLRGGTJKAMG-UHFFFAOYSA-N

>  <initial_conformation_id>  (65) 
238

>  <minimize_method>  (65) 
MMFF

$$$$

     RDKit          3D

 52 54  0  0  0  0  0  0  0  0999 V2000
   -3.2025   -0.6446   -4.1422 C   0  0  0  0  0  0  0  0  0  0  0  0
   -2.9955   -1.4399   -2.9831 O   0  0  0  0  0  0  0  0  0  0  0  0
   -1.6198   -1.4554   -2.5895 C   0  0  0  0  0  0  0  0  0  0  0  0
   -1.4649   -2.2620   -1.2979 C   0  0  0  0  0  0  0  0  0  0  0  0
   -1.9934   -1.5651   -0.1665 O   0  0  0  0  0  0  0  0  0  0  0  0
   -1.2391   -0.6200    0.4761 C   0  0  0  0  0  0  0  0  0  0  0  0
    0.0698   -0.2731    0.1410 C   0  0  0  0  0  0  0  0  0  0  0  0
    0.7704    0.7303    0.8603 C   0  0  0  0  0  0  0  0  0  0  0  0
    0.1310    1.3951    1.9126 C   0  0  0  0  0  0  0  0  0  0  0  0
   -1.1689    1.0360    2.2432 C   0  0  0  0  0  0  0  0  0  0  0  0
   -1.8633    0.0412    1.5460 C   0  0  0  0  0  0  0  0  0  0  0  0
   -3.1449   -0.3565    1.8327 O   0  0  0  0  0  0  0  0  0  0  0  0
   -3.8688    0.3727    2.8210 C   0  0  0  0  0  0  0  0  0  0  0  0
   -5.2787   -0.2102    2.9130 C   0  0  0  0  0  0  0  0  0  0  0  0
   -6.0659    0.4466    3.9074 O   0  0  0  0  0  0  0  0  0  0  0  0
   -6.6692    1.6432    3.4331 C   0  0  0  0  0  0  0  0  0  0  0  0
    0.7191    2.3659    2.6164 N   0  0  0  0  0  0  0  0  0  0  0  0
    1.9667    2.6934    2.2655 C   0  0  0  0  0  0  0  0  0  0  0  0
    2.6825    2.1328    1.2885 N   0  0  0  0  0  0  0  0  0  0  0  0
    2.0923    1.1442    0.5940 C   0  0  0  0  0  0  0  0  0  0  0  0
    2.8267    0.4708   -0.4218 N   0  0  0  0  0  0  0  0  0  0  0  0
    4.0281    0.8761   -1.0483 C   0  0  0  0  0  0  0  0  0  0  0  0
    4.3696    2.2220   -1.2288 C   0  0  0  0  0  0  0  0  0  0  0  0
    5.5294    2.5873   -1.9188 C   0  0  0  0  0  0  0  0  0  0  0  0
    6.3549    1.6070   -2.4647 C   0  0  0  0  0  0  0  0  0  0  0  0
    6.0130    0.2626   -2.3298 C   0  0  0  0  0  0  0  0  0  0  0  0
    4.8511   -0.0975   -1.6375 C   0  0  0  0  0  0  0  0  0  0  0  0
    6.8452   -0.7496   -2.9050 C   0  0  0  0  0  0  0  0  0  0  0  0
    7.5441   -1.5985   -3.3875 C   0  0  0  0  0  0  0  0  0  0  0  0
   -2.6226   -1.0354   -4.9838 H   0  0  0  0  0  0  0  0  0  0  0  0
   -2.9283    0.3964   -3.9462 H   0  0  0  0  0  0  0  0  0  0  0  0
   -4.2639   -0.6828   -4.4012 H   0  0  0  0  0  0  0  0  0  0  0  0
   -1.2746   -0.4253   -2.4540 H   0  0  0  0  0  0  0  0  0  0  0  0
   -1.0369   -1.9320   -3.3853 H   0  0  0  0  0  0  0  0  0  0  0  0
   -2.0503   -3.1849   -1.3829 H   0  0  0  0  0  0  0  0  0  0  0  0
   -0.4280   -2.5700   -1.1266 H   0  0  0  0  0  0  0  0  0  0  0  0
    0.5710   -0.7492   -0.6938 H   0  0  0  0  0  0  0  0  0  0  0  0
   -1.6273    1.5640    3.0738 H   0  0  0  0  0  0  0  0  0  0  0  0
   -3.9226    1.4323    2.5470 H   0  0  0  0  0  0  0  0  0  0  0  0
   -3.3835    0.2845    3.8006 H   0  0  0  0  0  0  0  0  0  0  0  0
   -5.2068   -1.2660    3.1991 H   0  0  0  0  0  0  0  0  0  0  0  0
   -5.7816   -0.1949    1.9381 H   0  0  0  0  0  0  0  0  0  0  0  0
   -7.3279    1.4309    2.5855 H   0  0  0  0  0  0  0  0  0  0  0  0
   -7.2717    2.0656    4.2420 H   0  0  0  0  0  0  0  0  0  0  0  0
   -5.9120    2.3783    3.1479 H   0  0  0  0  0  0  0  0  0  0  0  0
    2.4436    3.4873    2.8299 H   0  0  0  0  0  0  0  0  0  0  0  0
    2.8471   -0.5190   -0.1965 H   0  0  0  0  0  0  0  0  0  0  0  0
    3.7314    3.0093   -0.8358 H   0  0  0  0  0  0  0  0  0  0  0  0
    5.7809    3.6384   -2.0338 H   0  0  0  0  0  0  0  0  0  0  0  0
    7.2546    1.8981   -3.0010 H   0  0  0  0  0  0  0  0  0  0  0  0
    4.5931   -1.1503   -1.5555 H   0  0  0  0  0  0  0  0  0  0  0  0
    8.1664   -2.3496   -3.8155 H   0  0  0  0  0  0  0  0  0  0  0  0
  1  2  1  0
  2  3  1  0
  3  4  1  0
  4  5  1  0
  5  6  1  0
  6  7  2  0
  7  8  1  0
  8  9  2  0
  9 10  1  0
 10 11  2  0
 11 12  1  0
 12 13  1  0
 13 14  1  0
 14 15  1  0
 15 16  1  0
  9 17  1  0
 17 18  2  0
 18 19  1  0
 19 20  2  0
 20 21  1  0
 21 22  1  0
 22 23  2  0
 23 24  1  0
 24 25  2  0
 25 26  1  0
 26 27  2  0
 26 28  1  0
 28 29  3  0
 11  6  1  0
 20  8  1  0
 27 22  1  0
  1 30  1  0
  1 31  1  0
  1 32  1  0
  3 33  1  0
  3 34  1  0
  4 35  1  0
  4 36  1  0
  7 37  1  0
 10 38  1  0
 13 39  1  0
 13 40  1  0
 14 41  1  0
 14 42  1  0
 16 43  1  0
 16 44  1  0
 16 45  1  0
 18 46  1  0
 21 47  1  0
 23 48  1  0
 24 49  1  0
 25 50  1  0
 27 51  1  0
 29 52  1  0
M  END
>  <energy_abs>  (66) 
61.60882625097559

>  <SMILES>  (66) 
COCCOc1cc2c(cc1OCCOC)ncnc2Nc3cccc(c3)C#C

>  <cluster_no>  (66) 
66

>  <fda_drugs_id>  (66) 
AAKJLRGGTJKAMG-UHFFFAOYSA-N

>  <initial_conformation_id>  (66) 
237

>  <minimize_method>  (66) 
MMFF

$$$$

     RDKit          3D

 52 54  0  0  0  0  0  0  0  0999 V2000
   -2.5731   -4.1780   -2.1428 C   0  0  0  0  0  0  0  0  0  0  0  0
   -3.3752   -3.0318   -2.3827 O   0  0  0  0  0  0  0  0  0  0  0  0
   -2.7108   -2.0055   -3.1256 C   0  0  0  0  0  0  0  0  0  0  0  0
   -1.6682   -1.2334   -2.3097 C   0  0  0  0  0  0  0  0  0  0  0  0
   -2.3337   -0.4888   -1.2880 O   0  0  0  0  0  0  0  0  0  0  0  0
   -1.5649    0.1695   -0.3637 C   0  0  0  0  0  0  0  0  0  0  0  0
   -0.1847    0.3499   -0.4664 C   0  0  0  0  0  0  0  0  0  0  0  0
    0.5391    1.0437    0.5373 C   0  0  0  0  0  0  0  0  0  0  0  0
   -0.1420    1.5399    1.6543 C   0  0  0  0  0  0  0  0  0  0  0  0
   -1.5176    1.3660    1.7371 C   0  0  0  0  0  0  0  0  0  0  0  0
   -2.2435    0.6977    0.7459 C   0  0  0  0  0  0  0  0  0  0  0  0
   -3.5991    0.4939    0.7696 O   0  0  0  0  0  0  0  0  0  0  0  0
   -4.3723    1.0100    1.8507 C   0  0  0  0  0  0  0  0  0  0  0  0
   -4.3999    0.0366    3.0298 C   0  0  0  0  0  0  0  0  0  0  0  0
   -5.1690    0.5437    4.1213 O   0  0  0  0  0  0  0  0  0  0  0  0
   -4.4281    1.4202    4.9601 C   0  0  0  0  0  0  0  0  0  0  0  0
    0.4747    2.1783    2.6520 N   0  0  0  0  0  0  0  0  0  0  0  0
    1.7992    2.3245    2.5447 C   0  0  0  0  0  0  0  0  0  0  0  0
    2.5581    1.9052    1.5301 N   0  0  0  0  0  0  0  0  0  0  0  0
    1.9303    1.2762    0.5208 C   0  0  0  0  0  0  0  0  0  0  0  0
    2.6803    0.8535   -0.6117 N   0  0  0  0  0  0  0  0  0  0  0  0
    4.0833    0.7269   -0.7363 C   0  0  0  0  0  0  0  0  0  0  0  0
    4.9131    0.4109    0.3464 C   0  0  0  0  0  0  0  0  0  0  0  0
    6.2874    0.2213    0.1729 C   0  0  0  0  0  0  0  0  0  0  0  0
    6.8507    0.3193   -1.0973 C   0  0  0  0  0  0  0  0  0  0  0  0
    6.0366    0.5951   -2.1944 C   0  0  0  0  0  0  0  0  0  0  0  0
    4.6615    0.7845   -2.0149 C   0  0  0  0  0  0  0  0  0  0  0  0
    6.6046    0.6778   -3.5053 C   0  0  0  0  0  0  0  0  0  0  0  0
    7.0821    0.7474   -4.6049 C   0  0  0  0  0  0  0  0  0  0  0  0
   -2.1753   -4.5775   -3.0805 H   0  0  0  0  0  0  0  0  0  0  0  0
   -1.7575   -3.9476   -1.4528 H   0  0  0  0  0  0  0  0  0  0  0  0
   -3.2023   -4.9435   -1.6801 H   0  0  0  0  0  0  0  0  0  0  0  0
   -2.2537   -2.4415   -4.0211 H   0  0  0  0  0  0  0  0  0  0  0  0
   -3.4923   -1.3122   -3.4548 H   0  0  0  0  0  0  0  0  0  0  0  0
   -0.9479   -1.9250   -1.8613 H   0  0  0  0  0  0  0  0  0  0  0  0
   -1.1499   -0.5391   -2.9811 H   0  0  0  0  0  0  0  0  0  0  0  0
    0.3598   -0.0519   -1.3142 H   0  0  0  0  0  0  0  0  0  0  0  0
   -2.0050    1.7709    2.6175 H   0  0  0  0  0  0  0  0  0  0  0  0
   -4.0716    2.0257    2.1290 H   0  0  0  0  0  0  0  0  0  0  0  0
   -5.3986    1.1239    1.4801 H   0  0  0  0  0  0  0  0  0  0  0  0
   -3.3930   -0.2409    3.3621 H   0  0  0  0  0  0  0  0  0  0  0  0
   -4.8732   -0.8963    2.7023 H   0  0  0  0  0  0  0  0  0  0  0  0
   -4.0965    2.3042    4.4089 H   0  0  0  0  0  0  0  0  0  0  0  0
   -5.0802    1.7461    5.7750 H   0  0  0  0  0  0  0  0  0  0  0  0
   -3.5672    0.9007    5.3917 H   0  0  0  0  0  0  0  0  0  0  0  0
    2.3050    2.8351    3.3570 H   0  0  0  0  0  0  0  0  0  0  0  0
    2.2754    1.2778   -1.4402 H   0  0  0  0  0  0  0  0  0  0  0  0
    4.4977    0.3026    1.3450 H   0  0  0  0  0  0  0  0  0  0  0  0
    6.9132   -0.0097    1.0309 H   0  0  0  0  0  0  0  0  0  0  0  0
    7.9198    0.1695   -1.2253 H   0  0  0  0  0  0  0  0  0  0  0  0
    4.0405    0.9838   -2.8845 H   0  0  0  0  0  0  0  0  0  0  0  0
    7.5086    0.8096   -5.5790 H   0  0  0  0  0  0  0  0  0  0  0  0
  1  2  1  0
  2  3  1  0
  3  4  1  0
  4  5  1  0
  5  6  1  0
  6  7  2  0
  7  8  1  0
  8  9  2  0
  9 10  1  0
 10 11  2  0
 11 12  1  0
 12 13  1  0
 13 14  1  0
 14 15  1  0
 15 16  1  0
  9 17  1  0
 17 18  2  0
 18 19  1  0
 19 20  2  0
 20 21  1  0
 21 22  1  0
 22 23  2  0
 23 24  1  0
 24 25  2  0
 25 26  1  0
 26 27  2  0
 26 28  1  0
 28 29  3  0
 11  6  1  0
 20  8  1  0
 27 22  1  0
  1 30  1  0
  1 31  1  0
  1 32  1  0
  3 33  1  0
  3 34  1  0
  4 35  1  0
  4 36  1  0
  7 37  1  0
 10 38  1  0
 13 39  1  0
 13 40  1  0
 14 41  1  0
 14 42  1  0
 16 43  1  0
 16 44  1  0
 16 45  1  0
 18 46  1  0
 21 47  1  0
 23 48  1  0
 24 49  1  0
 25 50  1  0
 27 51  1  0
 29 52  1  0
M  END
>  <energy_abs>  (67) 
63.37565519180654

>  <SMILES>  (67) 
COCCOc1cc2c(cc1OCCOC)ncnc2Nc3cccc(c3)C#C

>  <cluster_no>  (67) 
67

>  <fda_drugs_id>  (67) 
AAKJLRGGTJKAMG-UHFFFAOYSA-N

>  <initial_conformation_id>  (67) 
236

>  <minimize_method>  (67) 
MMFF

$$$$

     RDKit          3D

 52 54  0  0  0  0  0  0  0  0999 V2000
   -4.1563   -3.5632   -3.2019 C   0  0  0  0  0  0  0  0  0  0  0  0
   -3.1438   -3.4843   -2.2057 O   0  0  0  0  0  0  0  0  0  0  0  0
   -3.1971   -2.2627   -1.4656 C   0  0  0  0  0  0  0  0  0  0  0  0
   -2.3133   -1.1934   -2.1102 C   0  0  0  0  0  0  0  0  0  0  0  0
   -2.4705    0.0760   -1.4621 O   0  0  0  0  0  0  0  0  0  0  0  0
   -1.5849    0.2393   -0.4284 C   0  0  0  0  0  0  0  0  0  0  0  0
   -0.2607    0.5686   -0.7118 C   0  0  0  0  0  0  0  0  0  0  0  0
    0.6594    0.7969    0.3374 C   0  0  0  0  0  0  0  0  0  0  0  0
    0.2226    0.6868    1.6652 C   0  0  0  0  0  0  0  0  0  0  0  0
   -1.1118    0.3799    1.9197 C   0  0  0  0  0  0  0  0  0  0  0  0
   -2.0338    0.1656    0.8925 C   0  0  0  0  0  0  0  0  0  0  0  0
   -3.3609   -0.1266    1.0568 O   0  0  0  0  0  0  0  0  0  0  0  0
   -3.9085   -0.1717    2.3730 C   0  0  0  0  0  0  0  0  0  0  0  0
   -4.2988    1.2191    2.8668 C   0  0  0  0  0  0  0  0  0  0  0  0
   -4.8505    1.1136    4.1787 O   0  0  0  0  0  0  0  0  0  0  0  0
   -5.2440    2.3832    4.6835 C   0  0  0  0  0  0  0  0  0  0  0  0
    1.0365    0.8724    2.7069 N   0  0  0  0  0  0  0  0  0  0  0  0
    2.3119    1.1628    2.4307 C   0  0  0  0  0  0  0  0  0  0  0  0
    2.8433    1.3007    1.2136 N   0  0  0  0  0  0  0  0  0  0  0  0
    2.0186    1.1298    0.1654 C   0  0  0  0  0  0  0  0  0  0  0  0
    2.5190    1.3045   -1.1534 N   0  0  0  0  0  0  0  0  0  0  0  0
    3.8640    1.3820   -1.5815 C   0  0  0  0  0  0  0  0  0  0  0  0
    4.1535    2.0323   -2.7925 C   0  0  0  0  0  0  0  0  0  0  0  0
    5.4577    2.0827   -3.2924 C   0  0  0  0  0  0  0  0  0  0  0  0
    6.4920    1.4587   -2.5996 C   0  0  0  0  0  0  0  0  0  0  0  0
    6.2189    0.7762   -1.4142 C   0  0  0  0  0  0  0  0  0  0  0  0
    4.9113    0.7286   -0.9185 C   0  0  0  0  0  0  0  0  0  0  0  0
    7.2771    0.1196   -0.7092 C   0  0  0  0  0  0  0  0  0  0  0  0
    8.1681   -0.4231   -0.1141 C   0  0  0  0  0  0  0  0  0  0  0  0
   -4.0065   -4.4855   -3.7694 H   0  0  0  0  0  0  0  0  0  0  0  0
   -5.1442   -3.6037   -2.7292 H   0  0  0  0  0  0  0  0  0  0  0  0
   -4.1021   -2.7162   -3.8916 H   0  0  0  0  0  0  0  0  0  0  0  0
   -2.8284   -2.4818   -0.4580 H   0  0  0  0  0  0  0  0  0  0  0  0
   -4.2292   -1.9106   -1.3458 H   0  0  0  0  0  0  0  0  0  0  0  0
   -2.6110   -1.0515   -3.1547 H   0  0  0  0  0  0  0  0  0  0  0  0
   -1.2679   -1.5282   -2.1467 H   0  0  0  0  0  0  0  0  0  0  0  0
    0.0517    0.6394   -1.7503 H   0  0  0  0  0  0  0  0  0  0  0  0
   -1.4046    0.3190    2.9635 H   0  0  0  0  0  0  0  0  0  0  0  0
   -3.2666   -0.7086    3.0814 H   0  0  0  0  0  0  0  0  0  0  0  0
   -4.8183   -0.7823    2.3140 H   0  0  0  0  0  0  0  0  0  0  0  0
   -5.0350    1.6591    2.1833 H   0  0  0  0  0  0  0  0  0  0  0  0
   -3.4272    1.8827    2.8858 H   0  0  0  0  0  0  0  0  0  0  0  0
   -6.0175    2.8242    4.0477 H   0  0  0  0  0  0  0  0  0  0  0  0
   -4.3815    3.0534    4.7494 H   0  0  0  0  0  0  0  0  0  0  0  0
   -5.6539    2.2422    5.6867 H   0  0  0  0  0  0  0  0  0  0  0  0
    2.9779    1.3032    3.2755 H   0  0  0  0  0  0  0  0  0  0  0  0
    1.9383    1.9833   -1.6347 H   0  0  0  0  0  0  0  0  0  0  0  0
    3.3628    2.5157   -3.3606 H   0  0  0  0  0  0  0  0  0  0  0  0
    5.6637    2.6035   -4.2244 H   0  0  0  0  0  0  0  0  0  0  0  0
    7.5051    1.4988   -2.9914 H   0  0  0  0  0  0  0  0  0  0  0  0
    4.7141    0.1685   -0.0077 H   0  0  0  0  0  0  0  0  0  0  0  0
    8.9582   -0.8988    0.4197 H   0  0  0  0  0  0  0  0  0  0  0  0
  1  2  1  0
  2  3  1  0
  3  4  1  0
  4  5  1  0
  5  6  1  0
  6  7  2  0
  7  8  1  0
  8  9  2  0
  9 10  1  0
 10 11  2  0
 11 12  1  0
 12 13  1  0
 13 14  1  0
 14 15  1  0
 15 16  1  0
  9 17  1  0
 17 18  2  0
 18 19  1  0
 19 20  2  0
 20 21  1  0
 21 22  1  0
 22 23  2  0
 23 24  1  0
 24 25  2  0
 25 26  1  0
 26 27  2  0
 26 28  1  0
 28 29  3  0
 11  6  1  0
 20  8  1  0
 27 22  1  0
  1 30  1  0
  1 31  1  0
  1 32  1  0
  3 33  1  0
  3 34  1  0
  4 35  1  0
  4 36  1  0
  7 37  1  0
 10 38  1  0
 13 39  1  0
 13 40  1  0
 14 41  1  0
 14 42  1  0
 16 43  1  0
 16 44  1  0
 16 45  1  0
 18 46  1  0
 21 47  1  0
 23 48  1  0
 24 49  1  0
 25 50  1  0
 27 51  1  0
 29 52  1  0
M  END
>  <energy_abs>  (68) 
59.69624067406499

>  <SMILES>  (68) 
COCCOc1cc2c(cc1OCCOC)ncnc2Nc3cccc(c3)C#C

>  <cluster_no>  (68) 
68

>  <fda_drugs_id>  (68) 
AAKJLRGGTJKAMG-UHFFFAOYSA-N

>  <initial_conformation_id>  (68) 
235

>  <minimize_method>  (68) 
MMFF

$$$$

     RDKit          3D

 52 54  0  0  0  0  0  0  0  0999 V2000
   -0.0066   -2.7237   -2.8046 C   0  0  0  0  0  0  0  0  0  0  0  0
   -0.9102   -1.6861   -3.1598 O   0  0  0  0  0  0  0  0  0  0  0  0
   -2.2778   -1.9991   -2.8604 C   0  0  0  0  0  0  0  0  0  0  0  0
   -2.6329   -1.7183   -1.3978 C   0  0  0  0  0  0  0  0  0  0  0  0
   -2.5694   -0.2996   -1.1700 O   0  0  0  0  0  0  0  0  0  0  0  0
   -1.8140   -0.0215   -0.0614 C   0  0  0  0  0  0  0  0  0  0  0  0
   -0.4637    0.2567   -0.2529 C   0  0  0  0  0  0  0  0  0  0  0  0
    0.3649    0.5571    0.8512 C   0  0  0  0  0  0  0  0  0  0  0  0
   -0.1961    0.5912    2.1347 C   0  0  0  0  0  0  0  0  0  0  0  0
   -1.5568    0.3291    2.2912 C   0  0  0  0  0  0  0  0  0  0  0  0
   -2.3857    0.0244    1.2116 C   0  0  0  0  0  0  0  0  0  0  0  0
   -3.7194   -0.2650    1.2779 O   0  0  0  0  0  0  0  0  0  0  0  0
   -4.4363   -0.0688    2.5003 C   0  0  0  0  0  0  0  0  0  0  0  0
   -4.8856    1.3839    2.6665 C   0  0  0  0  0  0  0  0  0  0  0  0
   -3.8652    2.1369    3.3269 O   0  0  0  0  0  0  0  0  0  0  0  0
   -4.1953    3.5167    3.4097 C   0  0  0  0  0  0  0  0  0  0  0  0
    0.5300    0.8576    3.2228 N   0  0  0  0  0  0  0  0  0  0  0  0
    1.8345    1.0866    3.0404 C   0  0  0  0  0  0  0  0  0  0  0  0
    2.4827    1.0712    1.8761 N   0  0  0  0  0  0  0  0  0  0  0  0
    1.7500    0.8134    0.7774 C   0  0  0  0  0  0  0  0  0  0  0  0
    2.3816    0.7850   -0.4938 N   0  0  0  0  0  0  0  0  0  0  0  0
    3.7543    0.6975   -0.8133 C   0  0  0  0  0  0  0  0  0  0  0  0
    4.7003    0.1291    0.0464 C   0  0  0  0  0  0  0  0  0  0  0  0
    6.0356   -0.0148   -0.3405 C   0  0  0  0  0  0  0  0  0  0  0  0
    6.4424    0.3859   -1.6116 C   0  0  0  0  0  0  0  0  0  0  0  0
    5.5102    0.9209   -2.4978 C   0  0  0  0  0  0  0  0  0  0  0  0
    4.1755    1.0639   -2.1033 C   0  0  0  0  0  0  0  0  0  0  0  0
    5.9155    1.3104   -3.8156 C   0  0  0  0  0  0  0  0  0  0  0  0
    6.2565    1.6339   -4.9211 C   0  0  0  0  0  0  0  0  0  0  0  0
    1.0061   -2.3893   -3.0542 H   0  0  0  0  0  0  0  0  0  0  0  0
   -0.0474   -2.9371   -1.7326 H   0  0  0  0  0  0  0  0  0  0  0  0
   -0.2250   -3.6346   -3.3778 H   0  0  0  0  0  0  0  0  0  0  0  0
   -2.4926   -3.0405   -3.1233 H   0  0  0  0  0  0  0  0  0  0  0  0
   -2.8879   -1.3560   -3.5088 H   0  0  0  0  0  0  0  0  0  0  0  0
   -3.6657   -2.0346   -1.2051 H   0  0  0  0  0  0  0  0  0  0  0  0
   -1.9730   -2.2853   -0.7265 H   0  0  0  0  0  0  0  0  0  0  0  0
   -0.0639    0.2111   -1.2633 H   0  0  0  0  0  0  0  0  0  0  0  0
   -1.9458    0.3730    3.3038 H   0  0  0  0  0  0  0  0  0  0  0  0
   -5.3363   -0.6867    2.4013 H   0  0  0  0  0  0  0  0  0  0  0  0
   -3.8897   -0.4554    3.3663 H   0  0  0  0  0  0  0  0  0  0  0  0
   -5.7848    1.4139    3.2922 H   0  0  0  0  0  0  0  0  0  0  0  0
   -5.1035    1.8333    1.6912 H   0  0  0  0  0  0  0  0  0  0  0  0
   -5.1286    3.6555    3.9638 H   0  0  0  0  0  0  0  0  0  0  0  0
   -3.3928    4.0290    3.9452 H   0  0  0  0  0  0  0  0  0  0  0  0
   -4.2806    3.9499    2.4091 H   0  0  0  0  0  0  0  0  0  0  0  0
    2.4245    1.3045    3.9237 H   0  0  0  0  0  0  0  0  0  0  0  0
    1.8873    1.4066   -1.1246 H   0  0  0  0  0  0  0  0  0  0  0  0
    4.4090   -0.2193    1.0340 H   0  0  0  0  0  0  0  0  0  0  0  0
    6.7517   -0.4510    0.3496 H   0  0  0  0  0  0  0  0  0  0  0  0
    7.4805    0.2661   -1.9088 H   0  0  0  0  0  0  0  0  0  0  0  0
    3.4580    1.4638   -2.8146 H   0  0  0  0  0  0  0  0  0  0  0  0
    6.5590    1.9190   -5.9013 H   0  0  0  0  0  0  0  0  0  0  0  0
  1  2  1  0
  2  3  1  0
  3  4  1  0
  4  5  1  0
  5  6  1  0
  6  7  2  0
  7  8  1  0
  8  9  2  0
  9 10  1  0
 10 11  2  0
 11 12  1  0
 12 13  1  0
 13 14  1  0
 14 15  1  0
 15 16  1  0
  9 17  1  0
 17 18  2  0
 18 19  1  0
 19 20  2  0
 20 21  1  0
 21 22  1  0
 22 23  2  0
 23 24  1  0
 24 25  2  0
 25 26  1  0
 26 27  2  0
 26 28  1  0
 28 29  3  0
 11  6  1  0
 20  8  1  0
 27 22  1  0
  1 30  1  0
  1 31  1  0
  1 32  1  0
  3 33  1  0
  3 34  1  0
  4 35  1  0
  4 36  1  0
  7 37  1  0
 10 38  1  0
 13 39  1  0
 13 40  1  0
 14 41  1  0
 14 42  1  0
 16 43  1  0
 16 44  1  0
 16 45  1  0
 18 46  1  0
 21 47  1  0
 23 48  1  0
 24 49  1  0
 25 50  1  0
 27 51  1  0
 29 52  1  0
M  END
>  <energy_abs>  (69) 
60.97758338126379

>  <SMILES>  (69) 
COCCOc1cc2c(cc1OCCOC)ncnc2Nc3cccc(c3)C#C

>  <cluster_no>  (69) 
69

>  <fda_drugs_id>  (69) 
AAKJLRGGTJKAMG-UHFFFAOYSA-N

>  <initial_conformation_id>  (69) 
234

>  <minimize_method>  (69) 
MMFF

$$$$

     RDKit          3D

 52 54  0  0  0  0  0  0  0  0999 V2000
   -2.1215   -1.9959   -4.6550 C   0  0  0  0  0  0  0  0  0  0  0  0
   -1.8883   -2.5970   -3.3869 O   0  0  0  0  0  0  0  0  0  0  0  0
   -2.2270   -1.7106   -2.3176 C   0  0  0  0  0  0  0  0  0  0  0  0
   -2.0009   -2.4272   -0.9885 C   0  0  0  0  0  0  0  0  0  0  0  0
   -2.3794   -1.6243    0.1302 O   0  0  0  0  0  0  0  0  0  0  0  0
   -1.5830   -0.5671    0.4662 C   0  0  0  0  0  0  0  0  0  0  0  0
   -0.2112   -0.4894    0.2347 C   0  0  0  0  0  0  0  0  0  0  0  0
    0.5392    0.6521    0.6400 C   0  0  0  0  0  0  0  0  0  0  0  0
   -0.1132    1.7231    1.2698 C   0  0  0  0  0  0  0  0  0  0  0  0
   -1.4763    1.6319    1.4971 C   0  0  0  0  0  0  0  0  0  0  0  0
   -2.1991    0.4967    1.1230 C   0  0  0  0  0  0  0  0  0  0  0  0
   -3.5496    0.4973    1.3446 O   0  0  0  0  0  0  0  0  0  0  0  0
   -3.8654   -0.1415    2.5917 C   0  0  0  0  0  0  0  0  0  0  0  0
   -4.9907    0.6456    3.2691 C   0  0  0  0  0  0  0  0  0  0  0  0
   -4.4654    1.8891    3.7396 O   0  0  0  0  0  0  0  0  0  0  0  0
   -5.4894    2.7167    4.2722 C   0  0  0  0  0  0  0  0  0  0  0  0
    0.5236    2.8286    1.6611 N   0  0  0  0  0  0  0  0  0  0  0  0
    1.8372    2.8819    1.4228 C   0  0  0  0  0  0  0  0  0  0  0  0
    2.5702    1.9350    0.8383 N   0  0  0  0  0  0  0  0  0  0  0  0
    1.9276    0.8188    0.4502 C   0  0  0  0  0  0  0  0  0  0  0  0
    2.6666   -0.2360   -0.1595 N   0  0  0  0  0  0  0  0  0  0  0  0
    3.9716   -0.2045   -0.7042 C   0  0  0  0  0  0  0  0  0  0  0  0
    4.6696   -1.4165   -0.8610 C   0  0  0  0  0  0  0  0  0  0  0  0
    5.9312   -1.4529   -1.4607 C   0  0  0  0  0  0  0  0  0  0  0  0
    6.5076   -0.2769   -1.9370 C   0  0  0  0  0  0  0  0  0  0  0  0
    5.8156    0.9309   -1.8244 C   0  0  0  0  0  0  0  0  0  0  0  0
    4.5510    0.9612   -1.2250 C   0  0  0  0  0  0  0  0  0  0  0  0
    6.3929    2.1373   -2.3355 C   0  0  0  0  0  0  0  0  0  0  0  0
    6.8752    3.1481   -2.7660 C   0  0  0  0  0  0  0  0  0  0  0  0
   -3.1825   -1.7603   -4.7767 H   0  0  0  0  0  0  0  0  0  0  0  0
   -1.5190   -1.0883   -4.7683 H   0  0  0  0  0  0  0  0  0  0  0  0
   -1.8323   -2.7083   -5.4308 H   0  0  0  0  0  0  0  0  0  0  0  0
   -3.2778   -1.4028   -2.3990 H   0  0  0  0  0  0  0  0  0  0  0  0
   -1.6079   -0.8068   -2.3809 H   0  0  0  0  0  0  0  0  0  0  0  0
   -0.9842   -2.8244   -0.8962 H   0  0  0  0  0  0  0  0  0  0  0  0
   -2.6424   -3.3168   -0.9663 H   0  0  0  0  0  0  0  0  0  0  0  0
    0.3099   -1.3035   -0.2647 H   0  0  0  0  0  0  0  0  0  0  0  0
   -1.9974    2.4594    1.9777 H   0  0  0  0  0  0  0  0  0  0  0  0
   -2.9973   -0.1946    3.2616 H   0  0  0  0  0  0  0  0  0  0  0  0
   -4.2092   -1.1605    2.3702 H   0  0  0  0  0  0  0  0  0  0  0  0
   -5.3853    0.0825    4.1208 H   0  0  0  0  0  0  0  0  0  0  0  0
   -5.7996    0.8418    2.5551 H   0  0  0  0  0  0  0  0  0  0  0  0
   -5.0320    3.6543    4.5897 H   0  0  0  0  0  0  0  0  0  0  0  0
   -6.2435    2.9380    3.5124 H   0  0  0  0  0  0  0  0  0  0  0  0
   -5.9619    2.2401    5.1358 H   0  0  0  0  0  0  0  0  0  0  0  0
    2.3591    3.7761    1.7369 H   0  0  0  0  0  0  0  0  0  0  0  0
    2.5085   -1.0934    0.3629 H   0  0  0  0  0  0  0  0  0  0  0  0
    4.2345   -2.3512   -0.5153 H   0  0  0  0  0  0  0  0  0  0  0  0
    6.4584   -2.3975   -1.5638 H   0  0  0  0  0  0  0  0  0  0  0  0
    7.4875   -0.3085   -2.4054 H   0  0  0  0  0  0  0  0  0  0  0  0
    4.0159    1.9111   -1.1747 H   0  0  0  0  0  0  0  0  0  0  0  0
    7.3003    4.0468   -3.1464 H   0  0  0  0  0  0  0  0  0  0  0  0
  1  2  1  0
  2  3  1  0
  3  4  1  0
  4  5  1  0
  5  6  1  0
  6  7  2  0
  7  8  1  0
  8  9  2  0
  9 10  1  0
 10 11  2  0
 11 12  1  0
 12 13  1  0
 13 14  1  0
 14 15  1  0
 15 16  1  0
  9 17  1  0
 17 18  2  0
 18 19  1  0
 19 20  2  0
 20 21  1  0
 21 22  1  0
 22 23  2  0
 23 24  1  0
 24 25  2  0
 25 26  1  0
 26 27  2  0
 26 28  1  0
 28 29  3  0
 11  6  1  0
 20  8  1  0
 27 22  1  0
  1 30  1  0
  1 31  1  0
  1 32  1  0
  3 33  1  0
  3 34  1  0
  4 35  1  0
  4 36  1  0
  7 37  1  0
 10 38  1  0
 13 39  1  0
 13 40  1  0
 14 41  1  0
 14 42  1  0
 16 43  1  0
 16 44  1  0
 16 45  1  0
 18 46  1  0
 21 47  1  0
 23 48  1  0
 24 49  1  0
 25 50  1  0
 27 51  1  0
 29 52  1  0
M  END
>  <energy_abs>  (70) 
59.11245301155973

>  <SMILES>  (70) 
COCCOc1cc2c(cc1OCCOC)ncnc2Nc3cccc(c3)C#C

>  <cluster_no>  (70) 
70

>  <fda_drugs_id>  (70) 
AAKJLRGGTJKAMG-UHFFFAOYSA-N

>  <initial_conformation_id>  (70) 
233

>  <minimize_method>  (70) 
MMFF

$$$$

     RDKit          3D

 52 54  0  0  0  0  0  0  0  0999 V2000
   -2.6182   -3.8441   -3.9893 C   0  0  0  0  0  0  0  0  0  0  0  0
   -2.4293   -4.2476   -2.6395 O   0  0  0  0  0  0  0  0  0  0  0  0
   -2.9105   -3.2853   -1.7006 C   0  0  0  0  0  0  0  0  0  0  0  0
   -1.8623   -2.2148   -1.3990 C   0  0  0  0  0  0  0  0  0  0  0  0
   -2.4131   -1.2976   -0.4572 O   0  0  0  0  0  0  0  0  0  0  0  0
   -1.6329   -0.2515   -0.0375 C   0  0  0  0  0  0  0  0  0  0  0  0
   -0.3160   -0.0294   -0.4429 C   0  0  0  0  0  0  0  0  0  0  0  0
    0.4231    1.0787    0.0463 C   0  0  0  0  0  0  0  0  0  0  0  0
   -0.1739    1.9488    0.9655 C   0  0  0  0  0  0  0  0  0  0  0  0
   -1.4866    1.7185    1.3579 C   0  0  0  0  0  0  0  0  0  0  0  0
   -2.2293    0.6385    0.8699 C   0  0  0  0  0  0  0  0  0  0  0  0
   -3.5250    0.3544    1.2189 O   0  0  0  0  0  0  0  0  0  0  0  0
   -4.2287    1.2363    2.0909 C   0  0  0  0  0  0  0  0  0  0  0  0
   -3.9915    0.8771    3.5553 C   0  0  0  0  0  0  0  0  0  0  0  0
   -4.7108    1.7887    4.3856 O   0  0  0  0  0  0  0  0  0  0  0  0
   -4.5339    1.4893    5.7642 C   0  0  0  0  0  0  0  0  0  0  0  0
    0.4669    2.9969    1.4886 N   0  0  0  0  0  0  0  0  0  0  0  0
    1.7313    3.1863    1.0983 C   0  0  0  0  0  0  0  0  0  0  0  0
    2.4062    2.4348    0.2264 N   0  0  0  0  0  0  0  0  0  0  0  0
    1.7534    1.3875   -0.3075 C   0  0  0  0  0  0  0  0  0  0  0  0
    2.4100    0.5786   -1.2757 N   0  0  0  0  0  0  0  0  0  0  0  0
    3.7903    0.5227   -1.5790 C   0  0  0  0  0  0  0  0  0  0  0  0
    4.1895    0.0738   -2.8484 C   0  0  0  0  0  0  0  0  0  0  0  0
    5.5415   -0.0622   -3.1749 C   0  0  0  0  0  0  0  0  0  0  0  0
    6.5185    0.2249   -2.2246 C   0  0  0  0  0  0  0  0  0  0  0  0
    6.1416    0.6352   -0.9462 C   0  0  0  0  0  0  0  0  0  0  0  0
    4.7861    0.7697   -0.6250 C   0  0  0  0  0  0  0  0  0  0  0  0
    7.1419    0.9085    0.0402 C   0  0  0  0  0  0  0  0  0  0  0  0
    7.9805    1.1381    0.8685 C   0  0  0  0  0  0  0  0  0  0  0  0
   -2.0680   -2.9241   -4.2043 H   0  0  0  0  0  0  0  0  0  0  0  0
   -3.6826   -3.7057   -4.2020 H   0  0  0  0  0  0  0  0  0  0  0  0
   -2.2354   -4.6354   -4.6395 H   0  0  0  0  0  0  0  0  0  0  0  0
   -3.8534   -2.8381   -2.0391 H   0  0  0  0  0  0  0  0  0  0  0  0
   -3.1452   -3.8213   -0.7738 H   0  0  0  0  0  0  0  0  0  0  0  0
   -1.5902   -1.6908   -2.3221 H   0  0  0  0  0  0  0  0  0  0  0  0
   -0.9672   -2.7008   -0.9918 H   0  0  0  0  0  0  0  0  0  0  0  0
    0.1730   -0.7168   -1.1252 H   0  0  0  0  0  0  0  0  0  0  0  0
   -1.9089    2.4180    2.0727 H   0  0  0  0  0  0  0  0  0  0  0  0
   -4.0331    2.2936    1.8766 H   0  0  0  0  0  0  0  0  0  0  0  0
   -5.2966    1.1077    1.8750 H   0  0  0  0  0  0  0  0  0  0  0  0
   -2.9239    0.9214    3.7972 H   0  0  0  0  0  0  0  0  0  0  0  0
   -4.3302   -0.1492    3.7423 H   0  0  0  0  0  0  0  0  0  0  0  0
   -5.1037    2.2154    6.3500 H   0  0  0  0  0  0  0  0  0  0  0  0
   -3.4781    1.5682    6.0409 H   0  0  0  0  0  0  0  0  0  0  0  0
   -4.9093    0.4865    5.9895 H   0  0  0  0  0  0  0  0  0  0  0  0
    2.2575    4.0318    1.5278 H   0  0  0  0  0  0  0  0  0  0  0  0
    1.8473    0.5652   -2.1199 H   0  0  0  0  0  0  0  0  0  0  0  0
    3.4474   -0.1721   -3.6036 H   0  0  0  0  0  0  0  0  0  0  0  0
    5.8311   -0.3975   -4.1673 H   0  0  0  0  0  0  0  0  0  0  0  0
    7.5694    0.1166   -2.4811 H   0  0  0  0  0  0  0  0  0  0  0  0
    4.5118    1.0646    0.3845 H   0  0  0  0  0  0  0  0  0  0  0  0
    8.7222    1.3427    1.6048 H   0  0  0  0  0  0  0  0  0  0  0  0
  1  2  1  0
  2  3  1  0
  3  4  1  0
  4  5  1  0
  5  6  1  0
  6  7  2  0
  7  8  1  0
  8  9  2  0
  9 10  1  0
 10 11  2  0
 11 12  1  0
 12 13  1  0
 13 14  1  0
 14 15  1  0
 15 16  1  0
  9 17  1  0
 17 18  2  0
 18 19  1  0
 19 20  2  0
 20 21  1  0
 21 22  1  0
 22 23  2  0
 23 24  1  0
 24 25  2  0
 25 26  1  0
 26 27  2  0
 26 28  1  0
 28 29  3  0
 11  6  1  0
 20  8  1  0
 27 22  1  0
  1 30  1  0
  1 31  1  0
  1 32  1  0
  3 33  1  0
  3 34  1  0
  4 35  1  0
  4 36  1  0
  7 37  1  0
 10 38  1  0
 13 39  1  0
 13 40  1  0
 14 41  1  0
 14 42  1  0
 16 43  1  0
 16 44  1  0
 16 45  1  0
 18 46  1  0
 21 47  1  0
 23 48  1  0
 24 49  1  0
 25 50  1  0
 27 51  1  0
 29 52  1  0
M  END
>  <energy_abs>  (71) 
58.982908732923654

>  <SMILES>  (71) 
COCCOc1cc2c(cc1OCCOC)ncnc2Nc3cccc(c3)C#C

>  <cluster_no>  (71) 
71

>  <fda_drugs_id>  (71) 
AAKJLRGGTJKAMG-UHFFFAOYSA-N

>  <initial_conformation_id>  (71) 
232

>  <minimize_method>  (71) 
MMFF

$$$$

     RDKit          3D

 52 54  0  0  0  0  0  0  0  0999 V2000
   -3.5466   -4.2856   -3.9917 C   0  0  0  0  0  0  0  0  0  0  0  0
   -2.5140   -3.5444   -3.3544 O   0  0  0  0  0  0  0  0  0  0  0  0
   -3.0420   -2.6499   -2.3751 C   0  0  0  0  0  0  0  0  0  0  0  0
   -1.8971   -1.8707   -1.7359 C   0  0  0  0  0  0  0  0  0  0  0  0
   -2.4382   -1.0013   -0.7448 O   0  0  0  0  0  0  0  0  0  0  0  0
   -1.5746   -0.1873   -0.0585 C   0  0  0  0  0  0  0  0  0  0  0  0
   -0.1897   -0.1721   -0.2324 C   0  0  0  0  0  0  0  0  0  0  0  0
    0.6341    0.6984    0.5270 C   0  0  0  0  0  0  0  0  0  0  0  0
    0.0434    1.5677    1.4512 C   0  0  0  0  0  0  0  0  0  0  0  0
   -1.3361    1.5426    1.6148 C   0  0  0  0  0  0  0  0  0  0  0  0
   -2.1562    0.6821    0.8779 C   0  0  0  0  0  0  0  0  0  0  0  0
   -3.5201    0.6019    1.0002 O   0  0  0  0  0  0  0  0  0  0  0  0
   -4.2073    1.5471    1.8175 C   0  0  0  0  0  0  0  0  0  0  0  0
   -4.3237    1.0521    3.2565 C   0  0  0  0  0  0  0  0  0  0  0  0
   -5.0112    2.0297    4.0368 O   0  0  0  0  0  0  0  0  0  0  0  0
   -5.1549    1.6125    5.3883 C   0  0  0  0  0  0  0  0  0  0  0  0
    0.7513    2.4256    2.1900 N   0  0  0  0  0  0  0  0  0  0  0  0
    2.0746    2.4332    2.0015 C   0  0  0  0  0  0  0  0  0  0  0  0
    2.7538    1.6531    1.1585 N   0  0  0  0  0  0  0  0  0  0  0  0
    2.0392    0.7794    0.4278 C   0  0  0  0  0  0  0  0  0  0  0  0
    2.7155   -0.1061   -0.4558 N   0  0  0  0  0  0  0  0  0  0  0  0
    4.0501   -0.0352   -0.9182 C   0  0  0  0  0  0  0  0  0  0  0  0
    4.6783   -1.2107   -1.3612 C   0  0  0  0  0  0  0  0  0  0  0  0
    5.9723   -1.1845   -1.8883 C   0  0  0  0  0  0  0  0  0  0  0  0
    6.6510    0.0261   -2.0050 C   0  0  0  0  0  0  0  0  0  0  0  0
    6.0298    1.2093   -1.6064 C   0  0  0  0  0  0  0  0  0  0  0  0
    4.7337    1.1768   -1.0793 C   0  0  0  0  0  0  0  0  0  0  0  0
    6.7148    2.4581   -1.7470 C   0  0  0  0  0  0  0  0  0  0  0  0
    7.2885    3.5064   -1.8648 C   0  0  0  0  0  0  0  0  0  0  0  0
   -4.0902   -4.8917   -3.2605 H   0  0  0  0  0  0  0  0  0  0  0  0
   -4.2357   -3.6132   -4.5117 H   0  0  0  0  0  0  0  0  0  0  0  0
   -3.0882   -4.9526   -4.7266 H   0  0  0  0  0  0  0  0  0  0  0  0
   -3.5844   -3.2134   -1.6063 H   0  0  0  0  0  0  0  0  0  0  0  0
   -3.7498   -1.9545   -2.8422 H   0  0  0  0  0  0  0  0  0  0  0  0
   -1.3767   -1.2979   -2.5135 H   0  0  0  0  0  0  0  0  0  0  0  0
   -1.1903   -2.5782   -1.2849 H   0  0  0  0  0  0  0  0  0  0  0  0
    0.2789   -0.8184   -0.9673 H   0  0  0  0  0  0  0  0  0  0  0  0
   -1.7500    2.2252    2.3506 H   0  0  0  0  0  0  0  0  0  0  0  0
   -3.7863    2.5573    1.7498 H   0  0  0  0  0  0  0  0  0  0  0  0
   -5.2192    1.6448    1.4051 H   0  0  0  0  0  0  0  0  0  0  0  0
   -3.3319    0.8688    3.6842 H   0  0  0  0  0  0  0  0  0  0  0  0
   -4.8721    0.1024    3.2761 H   0  0  0  0  0  0  0  0  0  0  0  0
   -5.7385    0.6886    5.4440 H   0  0  0  0  0  0  0  0  0  0  0  0
   -5.6868    2.3953    5.9355 H   0  0  0  0  0  0  0  0  0  0  0  0
   -4.1737    1.4677    5.8507 H   0  0  0  0  0  0  0  0  0  0  0  0
    2.6516    3.1371    2.5915 H   0  0  0  0  0  0  0  0  0  0  0  0
    2.4574   -1.0589   -0.2213 H   0  0  0  0  0  0  0  0  0  0  0  0
    4.1650   -2.1668   -1.2964 H   0  0  0  0  0  0  0  0  0  0  0  0
    6.4466   -2.1068   -2.2131 H   0  0  0  0  0  0  0  0  0  0  0  0
    7.6567    0.0435   -2.4172 H   0  0  0  0  0  0  0  0  0  0  0  0
    4.2564    2.1125   -0.7998 H   0  0  0  0  0  0  0  0  0  0  0  0
    7.7949    4.4375   -1.9679 H   0  0  0  0  0  0  0  0  0  0  0  0
  1  2  1  0
  2  3  1  0
  3  4  1  0
  4  5  1  0
  5  6  1  0
  6  7  2  0
  7  8  1  0
  8  9  2  0
  9 10  1  0
 10 11  2  0
 11 12  1  0
 12 13  1  0
 13 14  1  0
 14 15  1  0
 15 16  1  0
  9 17  1  0
 17 18  2  0
 18 19  1  0
 19 20  2  0
 20 21  1  0
 21 22  1  0
 22 23  2  0
 23 24  1  0
 24 25  2  0
 25 26  1  0
 26 27  2  0
 26 28  1  0
 28 29  3  0
 11  6  1  0
 20  8  1  0
 27 22  1  0
  1 30  1  0
  1 31  1  0
  1 32  1  0
  3 33  1  0
  3 34  1  0
  4 35  1  0
  4 36  1  0
  7 37  1  0
 10 38  1  0
 13 39  1  0
 13 40  1  0
 14 41  1  0
 14 42  1  0
 16 43  1  0
 16 44  1  0
 16 45  1  0
 18 46  1  0
 21 47  1  0
 23 48  1  0
 24 49  1  0
 25 50  1  0
 27 51  1  0
 29 52  1  0
M  END
>  <energy_abs>  (72) 
56.88592110432091

>  <SMILES>  (72) 
COCCOc1cc2c(cc1OCCOC)ncnc2Nc3cccc(c3)C#C

>  <cluster_no>  (72) 
72

>  <fda_drugs_id>  (72) 
AAKJLRGGTJKAMG-UHFFFAOYSA-N

>  <initial_conformation_id>  (72) 
231

>  <minimize_method>  (72) 
MMFF

$$$$

     RDKit          3D

 52 54  0  0  0  0  0  0  0  0999 V2000
   -0.5751   -1.9393   -3.6414 C   0  0  0  0  0  0  0  0  0  0  0  0
   -0.9569   -1.0450   -2.6034 O   0  0  0  0  0  0  0  0  0  0  0  0
   -2.3403   -1.1968   -2.2615 C   0  0  0  0  0  0  0  0  0  0  0  0
   -2.6797   -0.2906   -1.0781 C   0  0  0  0  0  0  0  0  0  0  0  0
   -2.3236   -0.9366    0.1574 O   0  0  0  0  0  0  0  0  0  0  0  0
   -1.4298   -0.2181    0.9010 C   0  0  0  0  0  0  0  0  0  0  0  0
   -0.1269   -0.0176    0.4546 C   0  0  0  0  0  0  0  0  0  0  0  0
    0.8141    0.6871    1.2475 C   0  0  0  0  0  0  0  0  0  0  0  0
    0.4356    1.1462    2.5187 C   0  0  0  0  0  0  0  0  0  0  0  0
   -0.8581    0.9047    2.9623 C   0  0  0  0  0  0  0  0  0  0  0  0
   -1.7905    0.2415    2.1640 C   0  0  0  0  0  0  0  0  0  0  0  0
   -3.0292    0.0012    2.6941 O   0  0  0  0  0  0  0  0  0  0  0  0
   -4.0115    0.8897    2.1499 C   0  0  0  0  0  0  0  0  0  0  0  0
   -5.2948    0.1050    1.8857 C   0  0  0  0  0  0  0  0  0  0  0  0
   -6.2960    0.9094    1.2603 O   0  0  0  0  0  0  0  0  0  0  0  0
   -7.0216    1.7073    2.1867 C   0  0  0  0  0  0  0  0  0  0  0  0
    1.2727    1.8021    3.3258 N   0  0  0  0  0  0  0  0  0  0  0  0
    2.5139    1.9993    2.8697 C   0  0  0  0  0  0  0  0  0  0  0  0
    2.9916    1.6138    1.6837 N   0  0  0  0  0  0  0  0  0  0  0  0
    2.1434    0.9647    0.8663 C   0  0  0  0  0  0  0  0  0  0  0  0
    2.5869    0.5439   -0.4168 N   0  0  0  0  0  0  0  0  0  0  0  0
    3.8970    0.4967   -0.9424 C   0  0  0  0  0  0  0  0  0  0  0  0
    5.0352    0.3437   -0.1424 C   0  0  0  0  0  0  0  0  0  0  0  0
    6.3090    0.2344   -0.7094 C   0  0  0  0  0  0  0  0  0  0  0  0
    6.4614    0.2508   -2.0937 C   0  0  0  0  0  0  0  0  0  0  0  0
    5.3379    0.3646   -2.9102 C   0  0  0  0  0  0  0  0  0  0  0  0
    4.0659    0.4746   -2.3369 C   0  0  0  0  0  0  0  0  0  0  0  0
    5.4832    0.3608   -4.3338 C   0  0  0  0  0  0  0  0  0  0  0  0
    5.6050    0.3571   -5.5284 C   0  0  0  0  0  0  0  0  0  0  0  0
   -0.7003   -2.9770   -3.3172 H   0  0  0  0  0  0  0  0  0  0  0  0
    0.4805   -1.7697   -3.8694 H   0  0  0  0  0  0  0  0  0  0  0  0
   -1.1635   -1.7514   -4.5446 H   0  0  0  0  0  0  0  0  0  0  0  0
   -2.9400   -0.9013   -3.1293 H   0  0  0  0  0  0  0  0  0  0  0  0
   -2.5434   -2.2443   -2.0116 H   0  0  0  0  0  0  0  0  0  0  0  0
   -2.2167    0.6985   -1.1901 H   0  0  0  0  0  0  0  0  0  0  0  0
   -3.7655   -0.1491   -1.0426 H   0  0  0  0  0  0  0  0  0  0  0  0
    0.1713   -0.4379   -0.5010 H   0  0  0  0  0  0  0  0  0  0  0  0
   -1.1470    1.2376    3.9559 H   0  0  0  0  0  0  0  0  0  0  0  0
   -3.6892    1.3927    1.2283 H   0  0  0  0  0  0  0  0  0  0  0  0
   -4.1935    1.6789    2.8878 H   0  0  0  0  0  0  0  0  0  0  0  0
   -5.6771   -0.3563    2.8045 H   0  0  0  0  0  0  0  0  0  0  0  0
   -5.0727   -0.7227    1.2029 H   0  0  0  0  0  0  0  0  0  0  0  0
   -7.5267    1.0755    2.9234 H   0  0  0  0  0  0  0  0  0  0  0  0
   -7.7800    2.2683    1.6339 H   0  0  0  0  0  0  0  0  0  0  0  0
   -6.3634    2.4209    2.6892 H   0  0  0  0  0  0  0  0  0  0  0  0
    3.1994    2.5249    3.5256 H   0  0  0  0  0  0  0  0  0  0  0  0
    1.9140    0.8376   -1.1177 H   0  0  0  0  0  0  0  0  0  0  0  0
    4.9465    0.2982    0.9396 H   0  0  0  0  0  0  0  0  0  0  0  0
    7.1782    0.1279   -0.0657 H   0  0  0  0  0  0  0  0  0  0  0  0
    7.4542    0.1630   -2.5273 H   0  0  0  0  0  0  0  0  0  0  0  0
    3.1988    0.5457   -2.9891 H   0  0  0  0  0  0  0  0  0  0  0  0
    5.7153    0.3540   -6.5877 H   0  0  0  0  0  0  0  0  0  0  0  0
  1  2  1  0
  2  3  1  0
  3  4  1  0
  4  5  1  0
  5  6  1  0
  6  7  2  0
  7  8  1  0
  8  9  2  0
  9 10  1  0
 10 11  2  0
 11 12  1  0
 12 13  1  0
 13 14  1  0
 14 15  1  0
 15 16  1  0
  9 17  1  0
 17 18  2  0
 18 19  1  0
 19 20  2  0
 20 21  1  0
 21 22  1  0
 22 23  2  0
 23 24  1  0
 24 25  2  0
 25 26  1  0
 26 27  2  0
 26 28  1  0
 28 29  3  0
 11  6  1  0
 20  8  1  0
 27 22  1  0
  1 30  1  0
  1 31  1  0
  1 32  1  0
  3 33  1  0
  3 34  1  0
  4 35  1  0
  4 36  1  0
  7 37  1  0
 10 38  1  0
 13 39  1  0
 13 40  1  0
 14 41  1  0
 14 42  1  0
 16 43  1  0
 16 44  1  0
 16 45  1  0
 18 46  1  0
 21 47  1  0
 23 48  1  0
 24 49  1  0
 25 50  1  0
 27 51  1  0
 29 52  1  0
M  END
>  <energy_abs>  (73) 
58.953577877582

>  <SMILES>  (73) 
COCCOc1cc2c(cc1OCCOC)ncnc2Nc3cccc(c3)C#C

>  <cluster_no>  (73) 
73

>  <fda_drugs_id>  (73) 
AAKJLRGGTJKAMG-UHFFFAOYSA-N

>  <initial_conformation_id>  (73) 
230

>  <minimize_method>  (73) 
MMFF

$$$$

     RDKit          3D

 52 54  0  0  0  0  0  0  0  0999 V2000
   -3.9296   -0.8458   -3.8626 C   0  0  0  0  0  0  0  0  0  0  0  0
   -2.9472    0.0768   -3.4165 O   0  0  0  0  0  0  0  0  0  0  0  0
   -1.6985   -0.5250   -3.0617 C   0  0  0  0  0  0  0  0  0  0  0  0
   -1.7658   -1.4519   -1.8416 C   0  0  0  0  0  0  0  0  0  0  0  0
   -2.2462   -0.7705   -0.6829 O   0  0  0  0  0  0  0  0  0  0  0  0
   -1.3638   -0.1641    0.1726 C   0  0  0  0  0  0  0  0  0  0  0  0
   -0.0006    0.0084   -0.0686 C   0  0  0  0  0  0  0  0  0  0  0  0
    0.8365    0.6542    0.8794 C   0  0  0  0  0  0  0  0  0  0  0  0
    0.2795    1.1484    2.0648 C   0  0  0  0  0  0  0  0  0  0  0  0
   -1.0792    0.9736    2.2925 C   0  0  0  0  0  0  0  0  0  0  0  0
   -1.9092    0.3282    1.3693 C   0  0  0  0  0  0  0  0  0  0  0  0
   -3.2560    0.1300    1.5419 O   0  0  0  0  0  0  0  0  0  0  0  0
   -3.8579    0.6147    2.7396 C   0  0  0  0  0  0  0  0  0  0  0  0
   -5.3517    0.3079    2.6845 C   0  0  0  0  0  0  0  0  0  0  0  0
   -5.9736    0.7537    3.8901 O   0  0  0  0  0  0  0  0  0  0  0  0
   -7.3736    0.5028    3.8758 C   0  0  0  0  0  0  0  0  0  0  0  0
    1.0007    1.7840    2.9913 N   0  0  0  0  0  0  0  0  0  0  0  0
    2.3023    1.9460    2.7342 C   0  0  0  0  0  0  0  0  0  0  0  0
    2.9507    1.5172    1.6478 N   0  0  0  0  0  0  0  0  0  0  0  0
    2.2238    0.8612    0.7267 C   0  0  0  0  0  0  0  0  0  0  0  0
    2.8717    0.3277   -0.4248 N   0  0  0  0  0  0  0  0  0  0  0  0
    4.1653    0.6234   -0.9160 C   0  0  0  0  0  0  0  0  0  0  0  0
    4.7709    1.8739   -0.7469 C   0  0  0  0  0  0  0  0  0  0  0  0
    6.0213    2.1531   -1.3079 C   0  0  0  0  0  0  0  0  0  0  0  0
    6.6743    1.1906   -2.0746 C   0  0  0  0  0  0  0  0  0  0  0  0
    6.0695   -0.0456   -2.2894 C   0  0  0  0  0  0  0  0  0  0  0  0
    4.8186   -0.3208   -1.7258 C   0  0  0  0  0  0  0  0  0  0  0  0
    6.7215   -1.0328   -3.0936 C   0  0  0  0  0  0  0  0  0  0  0  0
    7.2653   -1.8648   -3.7683 C   0  0  0  0  0  0  0  0  0  0  0  0
   -4.3192   -1.4297   -3.0254 H   0  0  0  0  0  0  0  0  0  0  0  0
   -3.5270   -1.5053   -4.6374 H   0  0  0  0  0  0  0  0  0  0  0  0
   -4.7609   -0.2784   -4.2886 H   0  0  0  0  0  0  0  0  0  0  0  0
   -1.0155    0.3051   -2.8564 H   0  0  0  0  0  0  0  0  0  0  0  0
   -1.3017   -1.0666   -3.9285 H   0  0  0  0  0  0  0  0  0  0  0  0
   -0.8060   -1.9497   -1.6596 H   0  0  0  0  0  0  0  0  0  0  0  0
   -2.4799   -2.2598   -2.0321 H   0  0  0  0  0  0  0  0  0  0  0  0
    0.4407   -0.3226   -1.0022 H   0  0  0  0  0  0  0  0  0  0  0  0
   -1.4731    1.3665    3.2238 H   0  0  0  0  0  0  0  0  0  0  0  0
   -3.4209    0.1220    3.6170 H   0  0  0  0  0  0  0  0  0  0  0  0
   -3.7195    1.6986    2.8365 H   0  0  0  0  0  0  0  0  0  0  0  0
   -5.8025    0.8117    1.8212 H   0  0  0  0  0  0  0  0  0  0  0  0
   -5.5056   -0.7712    2.5600 H   0  0  0  0  0  0  0  0  0  0  0  0
   -7.7961    0.8539    4.8206 H   0  0  0  0  0  0  0  0  0  0  0  0
   -7.8527    1.0468    3.0560 H   0  0  0  0  0  0  0  0  0  0  0  0
   -7.5703   -0.5695    3.7819 H   0  0  0  0  0  0  0  0  0  0  0  0
    2.8881    2.4718    3.4794 H   0  0  0  0  0  0  0  0  0  0  0  0
    2.6871   -0.6697   -0.4587 H   0  0  0  0  0  0  0  0  0  0  0  0
    4.2717    2.6551   -0.1776 H   0  0  0  0  0  0  0  0  0  0  0  0
    6.4769    3.1272   -1.1505 H   0  0  0  0  0  0  0  0  0  0  0  0
    7.6445    1.4160   -2.5088 H   0  0  0  0  0  0  0  0  0  0  0  0
    4.3552   -1.2861   -1.9179 H   0  0  0  0  0  0  0  0  0  0  0  0
    7.7440   -2.6002   -4.3728 H   0  0  0  0  0  0  0  0  0  0  0  0
  1  2  1  0
  2  3  1  0
  3  4  1  0
  4  5  1  0
  5  6  1  0
  6  7  2  0
  7  8  1  0
  8  9  2  0
  9 10  1  0
 10 11  2  0
 11 12  1  0
 12 13  1  0
 13 14  1  0
 14 15  1  0
 15 16  1  0
  9 17  1  0
 17 18  2  0
 18 19  1  0
 19 20  2  0
 20 21  1  0
 21 22  1  0
 22 23  2  0
 23 24  1  0
 24 25  2  0
 25 26  1  0
 26 27  2  0
 26 28  1  0
 28 29  3  0
 11  6  1  0
 20  8  1  0
 27 22  1  0
  1 30  1  0
  1 31  1  0
  1 32  1  0
  3 33  1  0
  3 34  1  0
  4 35  1  0
  4 36  1  0
  7 37  1  0
 10 38  1  0
 13 39  1  0
 13 40  1  0
 14 41  1  0
 14 42  1  0
 16 43  1  0
 16 44  1  0
 16 45  1  0
 18 46  1  0
 21 47  1  0
 23 48  1  0
 24 49  1  0
 25 50  1  0
 27 51  1  0
 29 52  1  0
M  END
>  <energy_abs>  (74) 
61.875653179974684

>  <SMILES>  (74) 
COCCOc1cc2c(cc1OCCOC)ncnc2Nc3cccc(c3)C#C

>  <cluster_no>  (74) 
74

>  <fda_drugs_id>  (74) 
AAKJLRGGTJKAMG-UHFFFAOYSA-N

>  <initial_conformation_id>  (74) 
229

>  <minimize_method>  (74) 
MMFF

$$$$

     RDKit          3D

 52 54  0  0  0  0  0  0  0  0999 V2000
   -4.5285   -1.2410   -4.2501 C   0  0  0  0  0  0  0  0  0  0  0  0
   -4.8026   -0.9077   -2.8950 O   0  0  0  0  0  0  0  0  0  0  0  0
   -3.8791   -1.5048   -1.9831 C   0  0  0  0  0  0  0  0  0  0  0  0
   -2.6316   -0.6436   -1.7976 C   0  0  0  0  0  0  0  0  0  0  0  0
   -1.7284   -1.3125   -0.9077 O   0  0  0  0  0  0  0  0  0  0  0  0
   -1.1475   -0.4403   -0.0253 C   0  0  0  0  0  0  0  0  0  0  0  0
    0.2089   -0.1776   -0.1959 C   0  0  0  0  0  0  0  0  0  0  0  0
    0.8880    0.6882    0.6924 C   0  0  0  0  0  0  0  0  0  0  0  0
    0.1843    1.2555    1.7644 C   0  0  0  0  0  0  0  0  0  0  0  0
   -1.1661    0.9563    1.9269 C   0  0  0  0  0  0  0  0  0  0  0  0
   -1.8458    0.0992    1.0584 C   0  0  0  0  0  0  0  0  0  0  0  0
   -3.1633   -0.2532    1.1651 O   0  0  0  0  0  0  0  0  0  0  0  0
   -3.8386   -0.0239    2.4007 C   0  0  0  0  0  0  0  0  0  0  0  0
   -4.6219    1.2874    2.3560 C   0  0  0  0  0  0  0  0  0  0  0  0
   -5.2532    1.5775    3.6033 O   0  0  0  0  0  0  0  0  0  0  0  0
   -6.4819    0.8832    3.7784 C   0  0  0  0  0  0  0  0  0  0  0  0
    0.7603    2.0732    2.6485 N   0  0  0  0  0  0  0  0  0  0  0  0
    2.0624    2.3239    2.4789 C   0  0  0  0  0  0  0  0  0  0  0  0
    2.8375    1.8442    1.5035 N   0  0  0  0  0  0  0  0  0  0  0  0
    2.2522    1.0348    0.6028 C   0  0  0  0  0  0  0  0  0  0  0  0
    3.0188    0.5211   -0.4785 N   0  0  0  0  0  0  0  0  0  0  0  0
    4.4231    0.5023   -0.6384 C   0  0  0  0  0  0  0  0  0  0  0  0
    5.3099    0.4601    0.4435 C   0  0  0  0  0  0  0  0  0  0  0  0
    6.6910    0.3741    0.2446 C   0  0  0  0  0  0  0  0  0  0  0  0
    7.2066    0.2989   -1.0463 C   0  0  0  0  0  0  0  0  0  0  0  0
    6.3393    0.3027   -2.1375 C   0  0  0  0  0  0  0  0  0  0  0  0
    4.9578    0.3912   -1.9321 C   0  0  0  0  0  0  0  0  0  0  0  0
    6.8624    0.2222   -3.4677 C   0  0  0  0  0  0  0  0  0  0  0  0
    7.3048    0.1631   -4.5829 C   0  0  0  0  0  0  0  0  0  0  0  0
   -4.6248   -2.3200   -4.4038 H   0  0  0  0  0  0  0  0  0  0  0  0
   -3.5294   -0.9061   -4.5437 H   0  0  0  0  0  0  0  0  0  0  0  0
   -5.2630   -0.7340   -4.8824 H   0  0  0  0  0  0  0  0  0  0  0  0
   -4.3908   -1.6038   -1.0193 H   0  0  0  0  0  0  0  0  0  0  0  0
   -3.6192   -2.5245   -2.2934 H   0  0  0  0  0  0  0  0  0  0  0  0
   -2.1161   -0.5066   -2.7543 H   0  0  0  0  0  0  0  0  0  0  0  0
   -2.9238    0.3608   -1.4611 H   0  0  0  0  0  0  0  0  0  0  0  0
    0.7346   -0.6629   -1.0139 H   0  0  0  0  0  0  0  0  0  0  0  0
   -1.6721    1.4232    2.7673 H   0  0  0  0  0  0  0  0  0  0  0  0
   -4.5417   -0.8552    2.5235 H   0  0  0  0  0  0  0  0  0  0  0  0
   -3.1792   -0.0871    3.2745 H   0  0  0  0  0  0  0  0  0  0  0  0
   -5.3526    1.2826    1.5376 H   0  0  0  0  0  0  0  0  0  0  0  0
   -3.9403    2.1163    2.1409 H   0  0  0  0  0  0  0  0  0  0  0  0
   -6.9185    1.1960    4.7314 H   0  0  0  0  0  0  0  0  0  0  0  0
   -6.3180   -0.1964    3.8135 H   0  0  0  0  0  0  0  0  0  0  0  0
   -7.1832    1.1351    2.9763 H   0  0  0  0  0  0  0  0  0  0  0  0
    2.5345    2.9804    3.2025 H   0  0  0  0  0  0  0  0  0  0  0  0
    2.5485    0.7426   -1.3495 H   0  0  0  0  0  0  0  0  0  0  0  0
    4.9355    0.4874    1.4636 H   0  0  0  0  0  0  0  0  0  0  0  0
    7.3594    0.3599    1.1009 H   0  0  0  0  0  0  0  0  0  0  0  0
    8.2814    0.2327   -1.1943 H   0  0  0  0  0  0  0  0  0  0  0  0
    4.2963    0.3830   -2.7955 H   0  0  0  0  0  0  0  0  0  0  0  0
    7.6995    0.1184   -5.5715 H   0  0  0  0  0  0  0  0  0  0  0  0
  1  2  1  0
  2  3  1  0
  3  4  1  0
  4  5  1  0
  5  6  1  0
  6  7  2  0
  7  8  1  0
  8  9  2  0
  9 10  1  0
 10 11  2  0
 11 12  1  0
 12 13  1  0
 13 14  1  0
 14 15  1  0
 15 16  1  0
  9 17  1  0
 17 18  2  0
 18 19  1  0
 19 20  2  0
 20 21  1  0
 21 22  1  0
 22 23  2  0
 23 24  1  0
 24 25  2  0
 25 26  1  0
 26 27  2  0
 26 28  1  0
 28 29  3  0
 11  6  1  0
 20  8  1  0
 27 22  1  0
  1 30  1  0
  1 31  1  0
  1 32  1  0
  3 33  1  0
  3 34  1  0
  4 35  1  0
  4 36  1  0
  7 37  1  0
 10 38  1  0
 13 39  1  0
 13 40  1  0
 14 41  1  0
 14 42  1  0
 16 43  1  0
 16 44  1  0
 16 45  1  0
 18 46  1  0
 21 47  1  0
 23 48  1  0
 24 49  1  0
 25 50  1  0
 27 51  1  0
 29 52  1  0
M  END
>  <energy_abs>  (75) 
60.53832576424128

>  <SMILES>  (75) 
COCCOc1cc2c(cc1OCCOC)ncnc2Nc3cccc(c3)C#C

>  <cluster_no>  (75) 
75

>  <fda_drugs_id>  (75) 
AAKJLRGGTJKAMG-UHFFFAOYSA-N

>  <initial_conformation_id>  (75) 
228

>  <minimize_method>  (75) 
MMFF

$$$$

     RDKit          3D

 52 54  0  0  0  0  0  0  0  0999 V2000
   -6.3822   -0.9005   -3.1177 C   0  0  0  0  0  0  0  0  0  0  0  0
   -5.1756   -0.1845   -2.8877 O   0  0  0  0  0  0  0  0  0  0  0  0
   -4.1931   -1.0081   -2.2586 C   0  0  0  0  0  0  0  0  0  0  0  0
   -2.9327   -0.1891   -2.0051 C   0  0  0  0  0  0  0  0  0  0  0  0
   -1.9342   -1.0378   -1.4248 O   0  0  0  0  0  0  0  0  0  0  0  0
   -1.2390   -0.4023   -0.4301 C   0  0  0  0  0  0  0  0  0  0  0  0
    0.0980   -0.1099   -0.6860 C   0  0  0  0  0  0  0  0  0  0  0  0
    0.8948    0.5217    0.2966 C   0  0  0  0  0  0  0  0  0  0  0  0
    0.3293    0.8206    1.5439 C   0  0  0  0  0  0  0  0  0  0  0  0
   -1.0025    0.4914    1.7845 C   0  0  0  0  0  0  0  0  0  0  0  0
   -1.8007   -0.1306    0.8211 C   0  0  0  0  0  0  0  0  0  0  0  0
   -3.1067   -0.5020    0.9902 O   0  0  0  0  0  0  0  0  0  0  0  0
   -3.6925   -0.4110    2.2880 C   0  0  0  0  0  0  0  0  0  0  0  0
   -4.3530    0.9486    2.5007 C   0  0  0  0  0  0  0  0  0  0  0  0
   -4.9188    0.9964    3.8097 O   0  0  0  0  0  0  0  0  0  0  0  0
   -5.5622    2.2402    4.0562 C   0  0  0  0  0  0  0  0  0  0  0  0
    1.0200    1.4075    2.5239 N   0  0  0  0  0  0  0  0  0  0  0  0
    2.3017    1.6923    2.2703 C   0  0  0  0  0  0  0  0  0  0  0  0
    2.9501    1.4585    1.1272 N   0  0  0  0  0  0  0  0  0  0  0  0
    2.2491    0.8808    0.1358 C   0  0  0  0  0  0  0  0  0  0  0  0
    2.8790    0.6347   -1.1145 N   0  0  0  0  0  0  0  0  0  0  0  0
    4.2560    0.6612   -1.4328 C   0  0  0  0  0  0  0  0  0  0  0  0
    4.6374    0.8464   -2.7715 C   0  0  0  0  0  0  0  0  0  0  0  0
    5.9818    0.8151   -3.1523 C   0  0  0  0  0  0  0  0  0  0  0  0
    6.9682    0.5711   -2.2001 C   0  0  0  0  0  0  0  0  0  0  0  0
    6.6075    0.3462   -0.8722 C   0  0  0  0  0  0  0  0  0  0  0  0
    5.2594    0.3786   -0.4971 C   0  0  0  0  0  0  0  0  0  0  0  0
    7.6166    0.0730    0.1053 C   0  0  0  0  0  0  0  0  0  0  0  0
    8.4628   -0.1539    0.9265 C   0  0  0  0  0  0  0  0  0  0  0  0
   -6.8166   -1.2303   -2.1692 H   0  0  0  0  0  0  0  0  0  0  0  0
   -6.2005   -1.7589   -3.7710 H   0  0  0  0  0  0  0  0  0  0  0  0
   -7.0912   -0.2303   -3.6115 H   0  0  0  0  0  0  0  0  0  0  0  0
   -4.5815   -1.3981   -1.3103 H   0  0  0  0  0  0  0  0  0  0  0  0
   -3.9579   -1.8658   -2.9002 H   0  0  0  0  0  0  0  0  0  0  0  0
   -2.5437    0.1933   -2.9564 H   0  0  0  0  0  0  0  0  0  0  0  0
   -3.1782    0.6901   -1.3948 H   0  0  0  0  0  0  0  0  0  0  0  0
    0.5163   -0.3890   -1.6494 H   0  0  0  0  0  0  0  0  0  0  0  0
   -1.3939    0.7413    2.7659 H   0  0  0  0  0  0  0  0  0  0  0  0
   -4.4703   -1.1830    2.3382 H   0  0  0  0  0  0  0  0  0  0  0  0
   -2.9947   -0.6726    3.0923 H   0  0  0  0  0  0  0  0  0  0  0  0
   -3.6219    1.7562    2.3839 H   0  0  0  0  0  0  0  0  0  0  0  0
   -5.1351    1.1001    1.7467 H   0  0  0  0  0  0  0  0  0  0  0  0
   -4.8447    3.0633    3.9843 H   0  0  0  0  0  0  0  0  0  0  0  0
   -6.3839    2.3918    3.3501 H   0  0  0  0  0  0  0  0  0  0  0  0
   -5.9718    2.2209    5.0699 H   0  0  0  0  0  0  0  0  0  0  0  0
    2.8683    2.1605    3.0677 H   0  0  0  0  0  0  0  0  0  0  0  0
    2.3194    1.0486   -1.8523 H   0  0  0  0  0  0  0  0  0  0  0  0
    3.8863    1.0217   -3.5375 H   0  0  0  0  0  0  0  0  0  0  0  0
    6.2566    0.9720   -4.1917 H   0  0  0  0  0  0  0  0  0  0  0  0
    8.0131    0.5453   -2.4994 H   0  0  0  0  0  0  0  0  0  0  0  0
    4.9977    0.1715    0.5370 H   0  0  0  0  0  0  0  0  0  0  0  0
    9.2114   -0.3531    1.6569 H   0  0  0  0  0  0  0  0  0  0  0  0
  1  2  1  0
  2  3  1  0
  3  4  1  0
  4  5  1  0
  5  6  1  0
  6  7  2  0
  7  8  1  0
  8  9  2  0
  9 10  1  0
 10 11  2  0
 11 12  1  0
 12 13  1  0
 13 14  1  0
 14 15  1  0
 15 16  1  0
  9 17  1  0
 17 18  2  0
 18 19  1  0
 19 20  2  0
 20 21  1  0
 21 22  1  0
 22 23  2  0
 23 24  1  0
 24 25  2  0
 25 26  1  0
 26 27  2  0
 26 28  1  0
 28 29  3  0
 11  6  1  0
 20  8  1  0
 27 22  1  0
  1 30  1  0
  1 31  1  0
  1 32  1  0
  3 33  1  0
  3 34  1  0
  4 35  1  0
  4 36  1  0
  7 37  1  0
 10 38  1  0
 13 39  1  0
 13 40  1  0
 14 41  1  0
 14 42  1  0
 16 43  1  0
 16 44  1  0
 16 45  1  0
 18 46  1  0
 21 47  1  0
 23 48  1  0
 24 49  1  0
 25 50  1  0
 27 51  1  0
 29 52  1  0
M  END
>  <energy_abs>  (76) 
56.972593348421896

>  <SMILES>  (76) 
COCCOc1cc2c(cc1OCCOC)ncnc2Nc3cccc(c3)C#C

>  <cluster_no>  (76) 
76

>  <fda_drugs_id>  (76) 
AAKJLRGGTJKAMG-UHFFFAOYSA-N

>  <initial_conformation_id>  (76) 
225

>  <minimize_method>  (76) 
MMFF

$$$$

     RDKit          3D

 52 54  0  0  0  0  0  0  0  0999 V2000
   -2.4486   -0.5982   -5.3950 C   0  0  0  0  0  0  0  0  0  0  0  0
   -2.5801   -1.6737   -4.4745 O   0  0  0  0  0  0  0  0  0  0  0  0
   -3.0597   -1.2550   -3.1961 C   0  0  0  0  0  0  0  0  0  0  0  0
   -1.9223   -0.7794   -2.2929 C   0  0  0  0  0  0  0  0  0  0  0  0
   -2.4745   -0.3940   -1.0360 O   0  0  0  0  0  0  0  0  0  0  0  0
   -1.6130   -0.0118   -0.0407 C   0  0  0  0  0  0  0  0  0  0  0  0
   -0.2323    0.1252   -0.1934 C   0  0  0  0  0  0  0  0  0  0  0  0
    0.5873    0.5340    0.8907 C   0  0  0  0  0  0  0  0  0  0  0  0
    0.0004    0.7856    2.1360 C   0  0  0  0  0  0  0  0  0  0  0  0
   -1.3749    0.6489    2.2735 C   0  0  0  0  0  0  0  0  0  0  0  0
   -2.1928    0.2562    1.2093 C   0  0  0  0  0  0  0  0  0  0  0  0
   -3.5555    0.1155    1.2788 O   0  0  0  0  0  0  0  0  0  0  0  0
   -4.2056    0.2082    2.5452 C   0  0  0  0  0  0  0  0  0  0  0  0
   -4.6063    1.6506    2.8567 C   0  0  0  0  0  0  0  0  0  0  0  0
   -5.2816    1.7607    4.1099 O   0  0  0  0  0  0  0  0  0  0  0  0
   -4.3915    1.8241    5.2167 C   0  0  0  0  0  0  0  0  0  0  0  0
    0.7066    1.1566    3.2068 N   0  0  0  0  0  0  0  0  0  0  0  0
    2.0287    1.2710    3.0447 C   0  0  0  0  0  0  0  0  0  0  0  0
    2.7037    1.0647    1.9121 N   0  0  0  0  0  0  0  0  0  0  0  0
    1.9864    0.7075    0.8321 C   0  0  0  0  0  0  0  0  0  0  0  0
    2.6469    0.5203   -0.4133 N   0  0  0  0  0  0  0  0  0  0  0  0
    4.0313    0.3735   -0.6622 C   0  0  0  0  0  0  0  0  0  0  0  0
    4.9126   -0.1912    0.2677 C   0  0  0  0  0  0  0  0  0  0  0  0
    6.2624   -0.3860   -0.0410 C   0  0  0  0  0  0  0  0  0  0  0  0
    6.7473   -0.0425   -1.3007 C   0  0  0  0  0  0  0  0  0  0  0  0
    5.8787    0.4847   -2.2546 C   0  0  0  0  0  0  0  0  0  0  0  0
    4.5288    0.6789   -1.9397 C   0  0  0  0  0  0  0  0  0  0  0  0
    6.3643    0.8199   -3.5583 C   0  0  0  0  0  0  0  0  0  0  0  0
    6.7723    1.1003   -4.6524 C   0  0  0  0  0  0  0  0  0  0  0  0
   -3.4199   -0.1278   -5.5747 H   0  0  0  0  0  0  0  0  0  0  0  0
   -2.0786   -1.0016   -6.3412 H   0  0  0  0  0  0  0  0  0  0  0  0
   -1.7318    0.1435   -5.0325 H   0  0  0  0  0  0  0  0  0  0  0  0
   -3.8382   -0.4885   -3.2963 H   0  0  0  0  0  0  0  0  0  0  0  0
   -3.5444   -2.1201   -2.7289 H   0  0  0  0  0  0  0  0  0  0  0  0
   -1.2021   -1.5979   -2.1698 H   0  0  0  0  0  0  0  0  0  0  0  0
   -1.4121    0.0728   -2.7563 H   0  0  0  0  0  0  0  0  0  0  0  0
    0.2397   -0.0949   -1.1451 H   0  0  0  0  0  0  0  0  0  0  0  0
   -1.7883    0.8675    3.2524 H   0  0  0  0  0  0  0  0  0  0  0  0
   -3.6286   -0.2673    3.3458 H   0  0  0  0  0  0  0  0  0  0  0  0
   -5.1211   -0.3925    2.4762 H   0  0  0  0  0  0  0  0  0  0  0  0
   -5.3002    1.9958    2.0814 H   0  0  0  0  0  0  0  0  0  0  0  0
   -3.7516    2.3356    2.8165 H   0  0  0  0  0  0  0  0  0  0  0  0
   -4.9861    1.9359    6.1274 H   0  0  0  0  0  0  0  0  0  0  0  0
   -3.7283    2.6900    5.1270 H   0  0  0  0  0  0  0  0  0  0  0  0
   -3.8030    0.9066    5.3001 H   0  0  0  0  0  0  0  0  0  0  0  0
    2.6075    1.5623    3.9145 H   0  0  0  0  0  0  0  0  0  0  0  0
    2.2122    1.1228   -1.1045 H   0  0  0  0  0  0  0  0  0  0  0  0
    4.5576   -0.4945    1.2491 H   0  0  0  0  0  0  0  0  0  0  0  0
    6.9298   -0.8140    0.7024 H   0  0  0  0  0  0  0  0  0  0  0  0
    7.7973   -0.1990   -1.5348 H   0  0  0  0  0  0  0  0  0  0  0  0
    3.8634    1.0758   -2.7021 H   0  0  0  0  0  0  0  0  0  0  0  0
    7.1368    1.3476   -5.6223 H   0  0  0  0  0  0  0  0  0  0  0  0
  1  2  1  0
  2  3  1  0
  3  4  1  0
  4  5  1  0
  5  6  1  0
  6  7  2  0
  7  8  1  0
  8  9  2  0
  9 10  1  0
 10 11  2  0
 11 12  1  0
 12 13  1  0
 13 14  1  0
 14 15  1  0
 15 16  1  0
  9 17  1  0
 17 18  2  0
 18 19  1  0
 19 20  2  0
 20 21  1  0
 21 22  1  0
 22 23  2  0
 23 24  1  0
 24 25  2  0
 25 26  1  0
 26 27  2  0
 26 28  1  0
 28 29  3  0
 11  6  1  0
 20  8  1  0
 27 22  1  0
  1 30  1  0
  1 31  1  0
  1 32  1  0
  3 33  1  0
  3 34  1  0
  4 35  1  0
  4 36  1  0
  7 37  1  0
 10 38  1  0
 13 39  1  0
 13 40  1  0
 14 41  1  0
 14 42  1  0
 16 43  1  0
 16 44  1  0
 16 45  1  0
 18 46  1  0
 21 47  1  0
 23 48  1  0
 24 49  1  0
 25 50  1  0
 27 51  1  0
 29 52  1  0
M  END
>  <energy_abs>  (77) 
60.659874694153935

>  <SMILES>  (77) 
COCCOc1cc2c(cc1OCCOC)ncnc2Nc3cccc(c3)C#C

>  <cluster_no>  (77) 
77

>  <fda_drugs_id>  (77) 
AAKJLRGGTJKAMG-UHFFFAOYSA-N

>  <initial_conformation_id>  (77) 
224

>  <minimize_method>  (77) 
MMFF

$$$$

     RDKit          3D

 52 54  0  0  0  0  0  0  0  0999 V2000
   -1.9520   -0.7915   -5.0814 C   0  0  0  0  0  0  0  0  0  0  0  0
   -2.0156   -1.5646   -3.8890 O   0  0  0  0  0  0  0  0  0  0  0  0
   -2.3356   -0.7534   -2.7572 C   0  0  0  0  0  0  0  0  0  0  0  0
   -2.3983   -1.6371   -1.5135 C   0  0  0  0  0  0  0  0  0  0  0  0
   -2.7131   -0.8870   -0.3418 O   0  0  0  0  0  0  0  0  0  0  0  0
   -1.7328   -0.1514    0.2616 C   0  0  0  0  0  0  0  0  0  0  0  0
   -0.3668   -0.2443   -0.0012 C   0  0  0  0  0  0  0  0  0  0  0  0
    0.5757    0.5709    0.6872 C   0  0  0  0  0  0  0  0  0  0  0  0
    0.1235    1.5013    1.6305 C   0  0  0  0  0  0  0  0  0  0  0  0
   -1.2363    1.5888    1.8822 C   0  0  0  0  0  0  0  0  0  0  0  0
   -2.1506    0.7631    1.2282 C   0  0  0  0  0  0  0  0  0  0  0  0
   -3.4793    0.9430    1.5203 O   0  0  0  0  0  0  0  0  0  0  0  0
   -3.9282   -0.0577    2.4549 C   0  0  0  0  0  0  0  0  0  0  0  0
   -5.0557    0.5406    3.2953 C   0  0  0  0  0  0  0  0  0  0  0  0
   -4.5038    1.5010    4.2088 O   0  0  0  0  0  0  0  0  0  0  0  0
   -5.4988    2.0564    5.0567 C   0  0  0  0  0  0  0  0  0  0  0  0
    0.9473    2.3075    2.2999 N   0  0  0  0  0  0  0  0  0  0  0  0
    2.2514    2.1963    2.0293 C   0  0  0  0  0  0  0  0  0  0  0  0
    2.8048    1.3555    1.1596 N   0  0  0  0  0  0  0  0  0  0  0  0
    1.9735    0.5382    0.4923 C   0  0  0  0  0  0  0  0  0  0  0  0
    2.5134   -0.3993   -0.4309 N   0  0  0  0  0  0  0  0  0  0  0  0
    3.8090   -0.4468   -0.9942 C   0  0  0  0  0  0  0  0  0  0  0  0
    4.2579   -1.6534   -1.5542 C   0  0  0  0  0  0  0  0  0  0  0  0
    5.4996   -1.7388   -2.1881 C   0  0  0  0  0  0  0  0  0  0  0  0
    6.3060   -0.6080   -2.2934 C   0  0  0  0  0  0  0  0  0  0  0  0
    5.8626    0.6076   -1.7780 C   0  0  0  0  0  0  0  0  0  0  0  0
    4.6166    0.6873   -1.1481 C   0  0  0  0  0  0  0  0  0  0  0  0
    6.6799    1.7753   -1.9019 C   0  0  0  0  0  0  0  0  0  0  0  0
    7.3648    2.7552   -2.0045 C   0  0  0  0  0  0  0  0  0  0  0  0
   -1.1719   -0.0263   -5.0033 H   0  0  0  0  0  0  0  0  0  0  0  0
   -2.9198   -0.3254   -5.2855 H   0  0  0  0  0  0  0  0  0  0  0  0
   -1.7033   -1.4611   -5.9109 H   0  0  0  0  0  0  0  0  0  0  0  0
   -3.3038   -0.2612   -2.9077 H   0  0  0  0  0  0  0  0  0  0  0  0
   -1.5778    0.0306   -2.6406 H   0  0  0  0  0  0  0  0  0  0  0  0
   -3.2098   -2.3624   -1.6500 H   0  0  0  0  0  0  0  0  0  0  0  0
   -1.5021   -2.2547   -1.3880 H   0  0  0  0  0  0  0  0  0  0  0  0
    0.0052   -0.9351   -0.7494 H   0  0  0  0  0  0  0  0  0  0  0  0
   -1.6010    2.3069    2.6106 H   0  0  0  0  0  0  0  0  0  0  0  0
   -4.3074   -0.9146    1.8881 H   0  0  0  0  0  0  0  0  0  0  0  0
   -3.1157   -0.3876    3.1164 H   0  0  0  0  0  0  0  0  0  0  0  0
   -5.7805    1.0433    2.6448 H   0  0  0  0  0  0  0  0  0  0  0  0
   -5.5585   -0.2499    3.8680 H   0  0  0  0  0  0  0  0  0  0  0  0
   -5.0378    2.8393    5.6669 H   0  0  0  0  0  0  0  0  0  0  0  0
   -6.3042    2.4998    4.4700 H   0  0  0  0  0  0  0  0  0  0  0  0
   -5.8981    1.2856    5.7226 H   0  0  0  0  0  0  0  0  0  0  0  0
    2.9243    2.8486    2.5692 H   0  0  0  0  0  0  0  0  0  0  0  0
    2.1865   -1.3304   -0.1846 H   0  0  0  0  0  0  0  0  0  0  0  0
    3.6400   -2.5472   -1.5021 H   0  0  0  0  0  0  0  0  0  0  0  0
    5.8337   -2.6858   -2.6045 H   0  0  0  0  0  0  0  0  0  0  0  0
    7.2711   -0.6780   -2.7875 H   0  0  0  0  0  0  0  0  0  0  0  0
    4.2801    1.6502   -0.7799 H   0  0  0  0  0  0  0  0  0  0  0  0
    7.9726    3.6263   -2.0974 H   0  0  0  0  0  0  0  0  0  0  0  0
  1  2  1  0
  2  3  1  0
  3  4  1  0
  4  5  1  0
  5  6  1  0
  6  7  2  0
  7  8  1  0
  8  9  2  0
  9 10  1  0
 10 11  2  0
 11 12  1  0
 12 13  1  0
 13 14  1  0
 14 15  1  0
 15 16  1  0
  9 17  1  0
 17 18  2  0
 18 19  1  0
 19 20  2  0
 20 21  1  0
 21 22  1  0
 22 23  2  0
 23 24  1  0
 24 25  2  0
 25 26  1  0
 26 27  2  0
 26 28  1  0
 28 29  3  0
 11  6  1  0
 20  8  1  0
 27 22  1  0
  1 30  1  0
  1 31  1  0
  1 32  1  0
  3 33  1  0
  3 34  1  0
  4 35  1  0
  4 36  1  0
  7 37  1  0
 10 38  1  0
 13 39  1  0
 13 40  1  0
 14 41  1  0
 14 42  1  0
 16 43  1  0
 16 44  1  0
 16 45  1  0
 18 46  1  0
 21 47  1  0
 23 48  1  0
 24 49  1  0
 25 50  1  0
 27 51  1  0
 29 52  1  0
M  END
>  <energy_abs>  (78) 
58.82221487698881

>  <SMILES>  (78) 
COCCOc1cc2c(cc1OCCOC)ncnc2Nc3cccc(c3)C#C

>  <cluster_no>  (78) 
78

>  <fda_drugs_id>  (78) 
AAKJLRGGTJKAMG-UHFFFAOYSA-N

>  <initial_conformation_id>  (78) 
223

>  <minimize_method>  (78) 
MMFF

$$$$

     RDKit          3D

 52 54  0  0  0  0  0  0  0  0999 V2000
   -6.0065   -0.6484   -1.8276 C   0  0  0  0  0  0  0  0  0  0  0  0
   -5.2559   -1.7694   -2.2767 O   0  0  0  0  0  0  0  0  0  0  0  0
   -4.1481   -2.0672   -1.4258 C   0  0  0  0  0  0  0  0  0  0  0  0
   -2.9246   -1.2148   -1.7571 C   0  0  0  0  0  0  0  0  0  0  0  0
   -1.8569   -1.5570   -0.8639 O   0  0  0  0  0  0  0  0  0  0  0  0
   -1.2538   -0.4569   -0.3129 C   0  0  0  0  0  0  0  0  0  0  0  0
    0.0951   -0.2810   -0.6129 C   0  0  0  0  0  0  0  0  0  0  0  0
    0.8180    0.8059   -0.0694 C   0  0  0  0  0  0  0  0  0  0  0  0
    0.1678    1.6857    0.8061 C   0  0  0  0  0  0  0  0  0  0  0  0
   -1.1740    1.4731    1.1133 C   0  0  0  0  0  0  0  0  0  0  0  0
   -1.9022    0.4082    0.5753 C   0  0  0  0  0  0  0  0  0  0  0  0
   -3.2095    0.1196    0.8578 O   0  0  0  0  0  0  0  0  0  0  0  0
   -3.9265    0.9348    1.7837 C   0  0  0  0  0  0  0  0  0  0  0  0
   -3.6933    0.4867    3.2271 C   0  0  0  0  0  0  0  0  0  0  0  0
   -4.3951    1.3124    4.1564 O   0  0  0  0  0  0  0  0  0  0  0  0
   -5.7505    0.9224    4.3339 C   0  0  0  0  0  0  0  0  0  0  0  0
    0.7863    2.7247    1.3710 N   0  0  0  0  0  0  0  0  0  0  0  0
    2.0789    2.8916    1.0725 C   0  0  0  0  0  0  0  0  0  0  0  0
    2.8037    2.1262    0.2538 N   0  0  0  0  0  0  0  0  0  0  0  0
    2.1760    1.0876   -0.3250 C   0  0  0  0  0  0  0  0  0  0  0  0
    2.8900    0.2560   -1.2302 N   0  0  0  0  0  0  0  0  0  0  0  0
    4.2852    0.1831   -1.4470 C   0  0  0  0  0  0  0  0  0  0  0  0
    4.7560   -0.3080   -2.6758 C   0  0  0  0  0  0  0  0  0  0  0  0
    6.1240   -0.4594   -2.9182 C   0  0  0  0  0  0  0  0  0  0  0  0
    7.0453   -0.1445   -1.9223 C   0  0  0  0  0  0  0  0  0  0  0  0
    6.5964    0.3089   -0.6824 C   0  0  0  0  0  0  0  0  0  0  0  0
    5.2251    0.4584   -0.4455 C   0  0  0  0  0  0  0  0  0  0  0  0
    7.5389    0.6111    0.3515 C   0  0  0  0  0  0  0  0  0  0  0  0
    8.3288    0.8647    1.2197 C   0  0  0  0  0  0  0  0  0  0  0  0
   -6.4092   -0.8329   -0.8269 H   0  0  0  0  0  0  0  0  0  0  0  0
   -5.3971    0.2591   -1.8261 H   0  0  0  0  0  0  0  0  0  0  0  0
   -6.8436   -0.5004   -2.5153 H   0  0  0  0  0  0  0  0  0  0  0  0
   -3.8935   -3.1222   -1.5794 H   0  0  0  0  0  0  0  0  0  0  0  0
   -4.4311   -1.9787   -0.3702 H   0  0  0  0  0  0  0  0  0  0  0  0
   -2.5928   -1.4429   -2.7774 H   0  0  0  0  0  0  0  0  0  0  0  0
   -3.1712   -0.1462   -1.7575 H   0  0  0  0  0  0  0  0  0  0  0  0
    0.5816   -1.0038   -1.2630 H   0  0  0  0  0  0  0  0  0  0  0  0
   -1.6257    2.1737    1.8092 H   0  0  0  0  0  0  0  0  0  0  0  0
   -3.7419    2.0057    1.6397 H   0  0  0  0  0  0  0  0  0  0  0  0
   -4.9874    0.8065    1.5408 H   0  0  0  0  0  0  0  0  0  0  0  0
   -2.6290    0.5645    3.4715 H   0  0  0  0  0  0  0  0  0  0  0  0
   -3.9551   -0.5703    3.3605 H   0  0  0  0  0  0  0  0  0  0  0  0
   -5.8084   -0.1052    4.7056 H   0  0  0  0  0  0  0  0  0  0  0  0
   -6.3113    1.0182    3.4004 H   0  0  0  0  0  0  0  0  0  0  0  0
   -6.2023    1.5852    5.0769 H   0  0  0  0  0  0  0  0  0  0  0  0
    2.5867    3.7297    1.5375 H   0  0  0  0  0  0  0  0  0  0  0  0
    2.3760    0.2035   -2.1032 H   0  0  0  0  0  0  0  0  0  0  0  0
    4.0578   -0.5762   -3.4646 H   0  0  0  0  0  0  0  0  0  0  0  0
    6.4688   -0.8284   -3.8805 H   0  0  0  0  0  0  0  0  0  0  0  0
    8.1087   -0.2649   -2.1131 H   0  0  0  0  0  0  0  0  0  0  0  0
    4.8944    0.7864    0.5364 H   0  0  0  0  0  0  0  0  0  0  0  0
    9.0269    1.0906    1.9915 H   0  0  0  0  0  0  0  0  0  0  0  0
  1  2  1  0
  2  3  1  0
  3  4  1  0
  4  5  1  0
  5  6  1  0
  6  7  2  0
  7  8  1  0
  8  9  2  0
  9 10  1  0
 10 11  2  0
 11 12  1  0
 12 13  1  0
 13 14  1  0
 14 15  1  0
 15 16  1  0
  9 17  1  0
 17 18  2  0
 18 19  1  0
 19 20  2  0
 20 21  1  0
 21 22  1  0
 22 23  2  0
 23 24  1  0
 24 25  2  0
 25 26  1  0
 26 27  2  0
 26 28  1  0
 28 29  3  0
 11  6  1  0
 20  8  1  0
 27 22  1  0
  1 30  1  0
  1 31  1  0
  1 32  1  0
  3 33  1  0
  3 34  1  0
  4 35  1  0
  4 36  1  0
  7 37  1  0
 10 38  1  0
 13 39  1  0
 13 40  1  0
 14 41  1  0
 14 42  1  0
 16 43  1  0
 16 44  1  0
 16 45  1  0
 18 46  1  0
 21 47  1  0
 23 48  1  0
 24 49  1  0
 25 50  1  0
 27 51  1  0
 29 52  1  0
M  END
>  <energy_abs>  (79) 
60.286029946284835

>  <SMILES>  (79) 
COCCOc1cc2c(cc1OCCOC)ncnc2Nc3cccc(c3)C#C

>  <cluster_no>  (79) 
79

>  <fda_drugs_id>  (79) 
AAKJLRGGTJKAMG-UHFFFAOYSA-N

>  <initial_conformation_id>  (79) 
222

>  <minimize_method>  (79) 
MMFF

$$$$

     RDKit          3D

 52 54  0  0  0  0  0  0  0  0999 V2000
   -0.7630   -4.3267   -3.1224 C   0  0  0  0  0  0  0  0  0  0  0  0
   -1.1313   -2.9563   -3.2118 O   0  0  0  0  0  0  0  0  0  0  0  0
   -1.7081   -2.4869   -1.9939 C   0  0  0  0  0  0  0  0  0  0  0  0
   -2.1522   -1.0372   -2.1720 C   0  0  0  0  0  0  0  0  0  0  0  0
   -2.6525   -0.4969   -0.9514 O   0  0  0  0  0  0  0  0  0  0  0  0
   -1.7864    0.0745   -0.0563 C   0  0  0  0  0  0  0  0  0  0  0  0
   -0.4020    0.1507   -0.2173 C   0  0  0  0  0  0  0  0  0  0  0  0
    0.4194    0.7601    0.7670 C   0  0  0  0  0  0  0  0  0  0  0  0
   -0.1739    1.3089    1.9092 C   0  0  0  0  0  0  0  0  0  0  0  0
   -1.5517    1.2230    2.0606 C   0  0  0  0  0  0  0  0  0  0  0  0
   -2.3682    0.6121    1.1034 C   0  0  0  0  0  0  0  0  0  0  0  0
   -3.7318    0.4948    1.1967 O   0  0  0  0  0  0  0  0  0  0  0  0
   -4.4061    1.0000    2.3474 C   0  0  0  0  0  0  0  0  0  0  0  0
   -4.7310    2.4866    2.1961 C   0  0  0  0  0  0  0  0  0  0  0  0
   -5.4146    3.0000    3.3400 O   0  0  0  0  0  0  0  0  0  0  0  0
   -4.5314    3.3831    4.3862 C   0  0  0  0  0  0  0  0  0  0  0  0
    0.5281    1.9167    2.8685 N   0  0  0  0  0  0  0  0  0  0  0  0
    1.8509    1.9898    2.6901 C   0  0  0  0  0  0  0  0  0  0  0  0
    2.5333    1.5027    1.6520 N   0  0  0  0  0  0  0  0  0  0  0  0
    1.8236    0.8797    0.6945 C   0  0  0  0  0  0  0  0  0  0  0  0
    2.5023    0.3089   -0.4167 N   0  0  0  0  0  0  0  0  0  0  0  0
    3.8339    0.5215   -0.8420 C   0  0  0  0  0  0  0  0  0  0  0  0
    4.5192    1.7217   -0.6180 C   0  0  0  0  0  0  0  0  0  0  0  0
    5.8111    1.9207   -1.1146 C   0  0  0  0  0  0  0  0  0  0  0  0
    6.4298    0.9268   -1.8693 C   0  0  0  0  0  0  0  0  0  0  0  0
    5.7505   -0.2603   -2.1370 C   0  0  0  0  0  0  0  0  0  0  0  0
    4.4576   -0.4541   -1.6371 C   0  0  0  0  0  0  0  0  0  0  0  0
    6.3711   -1.2780   -2.9289 C   0  0  0  0  0  0  0  0  0  0  0  0
    6.8922   -2.1314   -3.5939 C   0  0  0  0  0  0  0  0  0  0  0  0
   -0.0196   -4.4726   -2.3327 H   0  0  0  0  0  0  0  0  0  0  0  0
   -1.6433   -4.9481   -2.9317 H   0  0  0  0  0  0  0  0  0  0  0  0
   -0.3229   -4.6279   -4.0767 H   0  0  0  0  0  0  0  0  0  0  0  0
   -0.9735   -2.5723   -1.1856 H   0  0  0  0  0  0  0  0  0  0  0  0
   -2.5726   -3.1042   -1.7208 H   0  0  0  0  0  0  0  0  0  0  0  0
   -2.9811   -1.0190   -2.8903 H   0  0  0  0  0  0  0  0  0  0  0  0
   -1.3807   -0.4086   -2.6316 H   0  0  0  0  0  0  0  0  0  0  0  0
    0.0729   -0.2438   -1.1091 H   0  0  0  0  0  0  0  0  0  0  0  0
   -1.9674    1.6608    2.9618 H   0  0  0  0  0  0  0  0  0  0  0  0
   -3.8788    0.7601    3.2769 H   0  0  0  0  0  0  0  0  0  0  0  0
   -5.3531    0.4516    2.4249 H   0  0  0  0  0  0  0  0  0  0  0  0
   -3.8401    3.0858    1.9757 H   0  0  0  0  0  0  0  0  0  0  0  0
   -5.3961    2.6133    1.3340 H   0  0  0  0  0  0  0  0  0  0  0  0
   -5.1300    3.7769    5.2120 H   0  0  0  0  0  0  0  0  0  0  0  0
   -3.8519    4.1699    4.0446 H   0  0  0  0  0  0  0  0  0  0  0  0
   -3.9605    2.5254    4.7517 H   0  0  0  0  0  0  0  0  0  0  0  0
    2.4247    2.4895    3.4631 H   0  0  0  0  0  0  0  0  0  0  0  0
    2.2451   -0.6698   -0.4912 H   0  0  0  0  0  0  0  0  0  0  0  0
    4.0521    2.5262   -0.0561 H   0  0  0  0  0  0  0  0  0  0  0  0
    6.3273    2.8563   -0.9168 H   0  0  0  0  0  0  0  0  0  0  0  0
    7.4335    1.0888   -2.2540 H   0  0  0  0  0  0  0  0  0  0  0  0
    3.9370   -1.3794   -1.8711 H   0  0  0  0  0  0  0  0  0  0  0  0
    7.3562   -2.8865   -4.1845 H   0  0  0  0  0  0  0  0  0  0  0  0
  1  2  1  0
  2  3  1  0
  3  4  1  0
  4  5  1  0
  5  6  1  0
  6  7  2  0
  7  8  1  0
  8  9  2  0
  9 10  1  0
 10 11  2  0
 11 12  1  0
 12 13  1  0
 13 14  1  0
 14 15  1  0
 15 16  1  0
  9 17  1  0
 17 18  2  0
 18 19  1  0
 19 20  2  0
 20 21  1  0
 21 22  1  0
 22 23  2  0
 23 24  1  0
 24 25  2  0
 25 26  1  0
 26 27  2  0
 26 28  1  0
 28 29  3  0
 11  6  1  0
 20  8  1  0
 27 22  1  0
  1 30  1  0
  1 31  1  0
  1 32  1  0
  3 33  1  0
  3 34  1  0
  4 35  1  0
  4 36  1  0
  7 37  1  0
 10 38  1  0
 13 39  1  0
 13 40  1  0
 14 41  1  0
 14 42  1  0
 16 43  1  0
 16 44  1  0
 16 45  1  0
 18 46  1  0
 21 47  1  0
 23 48  1  0
 24 49  1  0
 25 50  1  0
 27 51  1  0
 29 52  1  0
M  END
>  <energy_abs>  (80) 
60.67463321711219

>  <SMILES>  (80) 
COCCOc1cc2c(cc1OCCOC)ncnc2Nc3cccc(c3)C#C

>  <cluster_no>  (80) 
80

>  <fda_drugs_id>  (80) 
AAKJLRGGTJKAMG-UHFFFAOYSA-N

>  <initial_conformation_id>  (80) 
221

>  <minimize_method>  (80) 
MMFF

$$$$

     RDKit          3D

 52 54  0  0  0  0  0  0  0  0999 V2000
   -2.1648   -2.3887   -4.6378 C   0  0  0  0  0  0  0  0  0  0  0  0
   -2.0256   -2.6174   -3.2415 O   0  0  0  0  0  0  0  0  0  0  0  0
   -2.4869   -1.5033   -2.4782 C   0  0  0  0  0  0  0  0  0  0  0  0
   -2.3889   -1.8323   -0.9910 C   0  0  0  0  0  0  0  0  0  0  0  0
   -2.7530   -0.7070   -0.1955 O   0  0  0  0  0  0  0  0  0  0  0  0
   -1.7870    0.1803    0.2024 C   0  0  0  0  0  0  0  0  0  0  0  0
   -0.4628    0.1709   -0.2392 C   0  0  0  0  0  0  0  0  0  0  0  0
    0.4690    1.1403    0.2146 C   0  0  0  0  0  0  0  0  0  0  0  0
    0.0538    2.1114    1.1325 C   0  0  0  0  0  0  0  0  0  0  0  0
   -1.2676    2.1136    1.5606 C   0  0  0  0  0  0  0  0  0  0  0  0
   -2.1970    1.1709    1.1100 C   0  0  0  0  0  0  0  0  0  0  0  0
   -3.5127    1.1211    1.4916 O   0  0  0  0  0  0  0  0  0  0  0  0
   -4.0318    2.0874    2.4057 C   0  0  0  0  0  0  0  0  0  0  0  0
   -3.7787    1.6992    3.8677 C   0  0  0  0  0  0  0  0  0  0  0  0
   -4.3295    0.4330    4.2409 O   0  0  0  0  0  0  0  0  0  0  0  0
   -5.7481    0.4108    4.2823 C   0  0  0  0  0  0  0  0  0  0  0  0
    0.8752    3.0454    1.6183 N   0  0  0  0  0  0  0  0  0  0  0  0
    2.1421    3.0116    1.1933 C   0  0  0  0  0  0  0  0  0  0  0  0
    2.6561    2.1447    0.3189 N   0  0  0  0  0  0  0  0  0  0  0  0
    1.8224    1.2138   -0.1778 C   0  0  0  0  0  0  0  0  0  0  0  0
    2.3085    0.2858   -1.1390 N   0  0  0  0  0  0  0  0  0  0  0  0
    3.6488   -0.0082   -1.4805 C   0  0  0  0  0  0  0  0  0  0  0  0
    3.9204   -0.5677   -2.7398 C   0  0  0  0  0  0  0  0  0  0  0  0
    5.2186   -0.9365   -3.1028 C   0  0  0  0  0  0  0  0  0  0  0  0
    6.2655   -0.7749   -2.1986 C   0  0  0  0  0  0  0  0  0  0  0  0
    6.0102   -0.2571   -0.9292 C   0  0  0  0  0  0  0  0  0  0  0  0
    4.7079    0.1103   -0.5714 C   0  0  0  0  0  0  0  0  0  0  0  0
    7.0792   -0.1123    0.0113 C   0  0  0  0  0  0  0  0  0  0  0  0
    7.9754    0.0093    0.8014 C   0  0  0  0  0  0  0  0  0  0  0  0
   -1.5766   -1.5182   -4.9437 H   0  0  0  0  0  0  0  0  0  0  0  0
   -1.7909   -3.2677   -5.1695 H   0  0  0  0  0  0  0  0  0  0  0  0
   -3.2175   -2.2438   -4.8989 H   0  0  0  0  0  0  0  0  0  0  0  0
   -1.8852   -0.6203   -2.7207 H   0  0  0  0  0  0  0  0  0  0  0  0
   -3.5282   -1.2732   -2.7346 H   0  0  0  0  0  0  0  0  0  0  0  0
   -3.1106   -2.6276   -0.7669 H   0  0  0  0  0  0  0  0  0  0  0  0
   -1.4179   -2.2586   -0.7124 H   0  0  0  0  0  0  0  0  0  0  0  0
   -0.1182   -0.5882   -0.9329 H   0  0  0  0  0  0  0  0  0  0  0  0
   -1.5437    2.8839    2.2724 H   0  0  0  0  0  0  0  0  0  0  0  0
   -3.6636    3.0952    2.1841 H   0  0  0  0  0  0  0  0  0  0  0  0
   -5.1099    2.1252    2.2193 H   0  0  0  0  0  0  0  0  0  0  0  0
   -2.7027    1.6217    4.0497 H   0  0  0  0  0  0  0  0  0  0  0  0
   -4.1662    2.4740    4.5390 H   0  0  0  0  0  0  0  0  0  0  0  0
   -6.1671    0.4624    3.2742 H   0  0  0  0  0  0  0  0  0  0  0  0
   -6.0610   -0.5367    4.7297 H   0  0  0  0  0  0  0  0  0  0  0  0
   -6.1341    1.2290    4.8977 H   0  0  0  0  0  0  0  0  0  0  0  0
    2.8157    3.7615    1.5938 H   0  0  0  0  0  0  0  0  0  0  0  0
    1.7189    0.3282   -1.9632 H   0  0  0  0  0  0  0  0  0  0  0  0
    3.1189   -0.7208   -3.4580 H   0  0  0  0  0  0  0  0  0  0  0  0
    5.4105   -1.3560   -4.0868 H   0  0  0  0  0  0  0  0  0  0  0  0
    7.2740   -1.0648   -2.4828 H   0  0  0  0  0  0  0  0  0  0  0  0
    4.5250    0.4851    0.4322 H   0  0  0  0  0  0  0  0  0  0  0  0
    8.7680    0.1180    1.5042 H   0  0  0  0  0  0  0  0  0  0  0  0
  1  2  1  0
  2  3  1  0
  3  4  1  0
  4  5  1  0
  5  6  1  0
  6  7  2  0
  7  8  1  0
  8  9  2  0
  9 10  1  0
 10 11  2  0
 11 12  1  0
 12 13  1  0
 13 14  1  0
 14 15  1  0
 15 16  1  0
  9 17  1  0
 17 18  2  0
 18 19  1  0
 19 20  2  0
 20 21  1  0
 21 22  1  0
 22 23  2  0
 23 24  1  0
 24 25  2  0
 25 26  1  0
 26 27  2  0
 26 28  1  0
 28 29  3  0
 11  6  1  0
 20  8  1  0
 27 22  1  0
  1 30  1  0
  1 31  1  0
  1 32  1  0
  3 33  1  0
  3 34  1  0
  4 35  1  0
  4 36  1  0
  7 37  1  0
 10 38  1  0
 13 39  1  0
 13 40  1  0
 14 41  1  0
 14 42  1  0
 16 43  1  0
 16 44  1  0
 16 45  1  0
 18 46  1  0
 21 47  1  0
 23 48  1  0
 24 49  1  0
 25 50  1  0
 27 51  1  0
 29 52  1  0
M  END
>  <energy_abs>  (81) 
63.77384401027183

>  <SMILES>  (81) 
COCCOc1cc2c(cc1OCCOC)ncnc2Nc3cccc(c3)C#C

>  <cluster_no>  (81) 
81

>  <fda_drugs_id>  (81) 
AAKJLRGGTJKAMG-UHFFFAOYSA-N

>  <initial_conformation_id>  (81) 
220

>  <minimize_method>  (81) 
MMFF

$$$$

     RDKit          3D

 52 54  0  0  0  0  0  0  0  0999 V2000
   -2.8348   -3.6975   -3.3213 C   0  0  0  0  0  0  0  0  0  0  0  0
   -1.6994   -3.0658   -2.7448 O   0  0  0  0  0  0  0  0  0  0  0  0
   -1.9511   -2.5654   -1.4312 C   0  0  0  0  0  0  0  0  0  0  0  0
   -2.5464   -1.1569   -1.4764 C   0  0  0  0  0  0  0  0  0  0  0  0
   -2.7579   -0.6268   -0.1692 O   0  0  0  0  0  0  0  0  0  0  0  0
   -1.7065   -0.0860    0.5162 C   0  0  0  0  0  0  0  0  0  0  0  0
   -0.4324    0.1490    0.0026 C   0  0  0  0  0  0  0  0  0  0  0  0
    0.5919    0.7219    0.8070 C   0  0  0  0  0  0  0  0  0  0  0  0
    0.3264    1.0308    2.1479 C   0  0  0  0  0  0  0  0  0  0  0  0
   -0.9445    0.7959    2.6479 C   0  0  0  0  0  0  0  0  0  0  0  0
   -1.9583    0.2714    1.8430 C   0  0  0  0  0  0  0  0  0  0  0  0
   -3.1913    0.0105    2.3869 O   0  0  0  0  0  0  0  0  0  0  0  0
   -3.9334    1.2050    2.6605 C   0  0  0  0  0  0  0  0  0  0  0  0
   -4.6855    1.6964    1.4211 C   0  0  0  0  0  0  0  0  0  0  0  0
   -5.5532    2.7939    1.7108 O   0  0  0  0  0  0  0  0  0  0  0  0
   -4.8681    4.0325    1.8287 C   0  0  0  0  0  0  0  0  0  0  0  0
    1.2449    1.5440    2.9695 N   0  0  0  0  0  0  0  0  0  0  0  0
    2.4604    1.7526    2.4548 C   0  0  0  0  0  0  0  0  0  0  0  0
    2.8339    1.5122    1.1966 N   0  0  0  0  0  0  0  0  0  0  0  0
    1.9033    1.0029    0.3704 C   0  0  0  0  0  0  0  0  0  0  0  0
    2.2372    0.7592   -0.9900 N   0  0  0  0  0  0  0  0  0  0  0  0
    3.5174    0.6987   -1.5876 C   0  0  0  0  0  0  0  0  0  0  0  0
    3.6264    0.9046   -2.9729 C   0  0  0  0  0  0  0  0  0  0  0  0
    4.8559    0.7909   -3.6270 C   0  0  0  0  0  0  0  0  0  0  0  0
    5.9962    0.4457   -2.9071 C   0  0  0  0  0  0  0  0  0  0  0  0
    5.9021    0.1985   -1.5381 C   0  0  0  0  0  0  0  0  0  0  0  0
    4.6673    0.3112   -0.8886 C   0  0  0  0  0  0  0  0  0  0  0  0
    7.0693   -0.1792   -0.7991 C   0  0  0  0  0  0  0  0  0  0  0  0
    8.0493   -0.4955   -0.1811 C   0  0  0  0  0  0  0  0  0  0  0  0
   -3.6649   -2.9940   -3.4248 H   0  0  0  0  0  0  0  0  0  0  0  0
   -2.5584   -4.0546   -4.3175 H   0  0  0  0  0  0  0  0  0  0  0  0
   -3.1414   -4.5572   -2.7176 H   0  0  0  0  0  0  0  0  0  0  0  0
   -0.9896   -2.5461   -0.9085 H   0  0  0  0  0  0  0  0  0  0  0  0
   -2.5914   -3.2484   -0.8589 H   0  0  0  0  0  0  0  0  0  0  0  0
   -3.5339   -1.2069   -1.9489 H   0  0  0  0  0  0  0  0  0  0  0  0
   -1.9715   -0.4788   -2.1173 H   0  0  0  0  0  0  0  0  0  0  0  0
   -0.1907   -0.1205   -1.0193 H   0  0  0  0  0  0  0  0  0  0  0  0
   -1.1457    1.0118    3.6941 H   0  0  0  0  0  0  0  0  0  0  0  0
   -3.3033    1.9919    3.0897 H   0  0  0  0  0  0  0  0  0  0  0  0
   -4.6636    0.9588    3.4397 H   0  0  0  0  0  0  0  0  0  0  0  0
   -5.3101    0.8822    1.0357 H   0  0  0  0  0  0  0  0  0  0  0  0
   -3.9999    1.9617    0.6095 H   0  0  0  0  0  0  0  0  0  0  0  0
   -4.2080    4.0343    2.7003 H   0  0  0  0  0  0  0  0  0  0  0  0
   -5.6123    4.8220    1.9627 H   0  0  0  0  0  0  0  0  0  0  0  0
   -4.2958    4.2475    0.9224 H   0  0  0  0  0  0  0  0  0  0  0  0
    3.2144    2.1592    3.1219 H   0  0  0  0  0  0  0  0  0  0  0  0
    1.5806    1.2571   -1.5814 H   0  0  0  0  0  0  0  0  0  0  0  0
    2.7493    1.1570   -3.5616 H   0  0  0  0  0  0  0  0  0  0  0  0
    4.9212    0.9660   -4.6976 H   0  0  0  0  0  0  0  0  0  0  0  0
    6.9515    0.3563   -3.4185 H   0  0  0  0  0  0  0  0  0  0  0  0
    4.6102    0.0863    0.1730 H   0  0  0  0  0  0  0  0  0  0  0  0
    8.9168   -0.7791    0.3691 H   0  0  0  0  0  0  0  0  0  0  0  0
  1  2  1  0
  2  3  1  0
  3  4  1  0
  4  5  1  0
  5  6  1  0
  6  7  2  0
  7  8  1  0
  8  9  2  0
  9 10  1  0
 10 11  2  0
 11 12  1  0
 12 13  1  0
 13 14  1  0
 14 15  1  0
 15 16  1  0
  9 17  1  0
 17 18  2  0
 18 19  1  0
 19 20  2  0
 20 21  1  0
 21 22  1  0
 22 23  2  0
 23 24  1  0
 24 25  2  0
 25 26  1  0
 26 27  2  0
 26 28  1  0
 28 29  3  0
 11  6  1  0
 20  8  1  0
 27 22  1  0
  1 30  1  0
  1 31  1  0
  1 32  1  0
  3 33  1  0
  3 34  1  0
  4 35  1  0
  4 36  1  0
  7 37  1  0
 10 38  1  0
 13 39  1  0
 13 40  1  0
 14 41  1  0
 14 42  1  0
 16 43  1  0
 16 44  1  0
 16 45  1  0
 18 46  1  0
 21 47  1  0
 23 48  1  0
 24 49  1  0
 25 50  1  0
 27 51  1  0
 29 52  1  0
M  END
>  <energy_abs>  (82) 
61.94339498693447

>  <SMILES>  (82) 
COCCOc1cc2c(cc1OCCOC)ncnc2Nc3cccc(c3)C#C

>  <cluster_no>  (82) 
82

>  <fda_drugs_id>  (82) 
AAKJLRGGTJKAMG-UHFFFAOYSA-N

>  <initial_conformation_id>  (82) 
219

>  <minimize_method>  (82) 
MMFF

$$$$

     RDKit          3D

 52 54  0  0  0  0  0  0  0  0999 V2000
   -0.8282   -1.9411   -3.3542 C   0  0  0  0  0  0  0  0  0  0  0  0
   -1.3729   -1.7775   -2.0501 O   0  0  0  0  0  0  0  0  0  0  0  0
   -2.7176   -1.2772   -2.0765 C   0  0  0  0  0  0  0  0  0  0  0  0
   -2.7600    0.2552   -2.1347 C   0  0  0  0  0  0  0  0  0  0  0  0
   -2.9473    0.8306   -0.8366 O   0  0  0  0  0  0  0  0  0  0  0  0
   -1.8774    1.0708   -0.0214 C   0  0  0  0  0  0  0  0  0  0  0  0
   -0.5598    0.7248   -0.3037 C   0  0  0  0  0  0  0  0  0  0  0  0
    0.4811    0.9636    0.6263 C   0  0  0  0  0  0  0  0  0  0  0  0
    0.1934    1.6244    1.8250 C   0  0  0  0  0  0  0  0  0  0  0  0
   -1.1217    1.9832    2.0920 C   0  0  0  0  0  0  0  0  0  0  0  0
   -2.1613    1.6915    1.2039 C   0  0  0  0  0  0  0  0  0  0  0  0
   -3.4760    2.0117    1.4306 O   0  0  0  0  0  0  0  0  0  0  0  0
   -3.9506    2.0490    2.7817 C   0  0  0  0  0  0  0  0  0  0  0  0
   -3.9831    0.6709    3.4568 C   0  0  0  0  0  0  0  0  0  0  0  0
   -5.0943   -0.1351    3.0533 O   0  0  0  0  0  0  0  0  0  0  0  0
   -4.9849   -0.6337    1.7260 C   0  0  0  0  0  0  0  0  0  0  0  0
    1.1325    1.9192    2.7263 N   0  0  0  0  0  0  0  0  0  0  0  0
    2.3825    1.5420    2.4392 C   0  0  0  0  0  0  0  0  0  0  0  0
    2.7748    0.8862    1.3456 N   0  0  0  0  0  0  0  0  0  0  0  0
    1.8254    0.5845    0.4433 C   0  0  0  0  0  0  0  0  0  0  0  0
    2.1717   -0.1552   -0.7245 N   0  0  0  0  0  0  0  0  0  0  0  0
    3.4602   -0.4688   -1.2127 C   0  0  0  0  0  0  0  0  0  0  0  0
    3.6260   -1.6121   -2.0128 C   0  0  0  0  0  0  0  0  0  0  0  0
    4.8672   -1.9346   -2.5674 C   0  0  0  0  0  0  0  0  0  0  0  0
    5.9638   -1.1072   -2.3443 C   0  0  0  0  0  0  0  0  0  0  0  0
    5.8104    0.0533   -1.5835 C   0  0  0  0  0  0  0  0  0  0  0  0
    4.5642    0.3734   -1.0334 C   0  0  0  0  0  0  0  0  0  0  0  0
    6.9286    0.9216   -1.3738 C   0  0  0  0  0  0  0  0  0  0  0  0
    7.8722    1.6412   -1.1910 C   0  0  0  0  0  0  0  0  0  0  0  0
   -0.8832   -1.0114   -3.9273 H   0  0  0  0  0  0  0  0  0  0  0  0
   -1.3552   -2.7416   -3.8824 H   0  0  0  0  0  0  0  0  0  0  0  0
    0.2232   -2.2251   -3.2523 H   0  0  0  0  0  0  0  0  0  0  0  0
   -3.2114   -1.6341   -1.1665 H   0  0  0  0  0  0  0  0  0  0  0  0
   -3.2469   -1.7084   -2.9353 H   0  0  0  0  0  0  0  0  0  0  0  0
   -3.6549    0.5420   -2.6986 H   0  0  0  0  0  0  0  0  0  0  0  0
   -1.9072    0.7027   -2.6541 H   0  0  0  0  0  0  0  0  0  0  0  0
   -0.3049    0.2607   -1.2475 H   0  0  0  0  0  0  0  0  0  0  0  0
   -1.3099    2.5111    3.0210 H   0  0  0  0  0  0  0  0  0  0  0  0
   -4.9737    2.4395    2.7279 H   0  0  0  0  0  0  0  0  0  0  0  0
   -3.3757    2.7698    3.3714 H   0  0  0  0  0  0  0  0  0  0  0  0
   -3.0549    0.1106    3.3156 H   0  0  0  0  0  0  0  0  0  0  0  0
   -4.1074    0.8255    4.5338 H   0  0  0  0  0  0  0  0  0  0  0  0
   -5.1476    0.1639    0.9994 H   0  0  0  0  0  0  0  0  0  0  0  0
   -4.0157   -1.1133    1.5617 H   0  0  0  0  0  0  0  0  0  0  0  0
   -5.7717   -1.3789    1.5813 H   0  0  0  0  0  0  0  0  0  0  0  0
    3.1511    1.7862    3.1639 H   0  0  0  0  0  0  0  0  0  0  0  0
    1.5426   -0.9510   -0.8027 H   0  0  0  0  0  0  0  0  0  0  0  0
    2.7862   -2.2753   -2.2058 H   0  0  0  0  0  0  0  0  0  0  0  0
    4.9768   -2.8300   -3.1715 H   0  0  0  0  0  0  0  0  0  0  0  0
    6.9306   -1.3600   -2.7725 H   0  0  0  0  0  0  0  0  0  0  0  0
    4.4626    1.2919   -0.4623 H   0  0  0  0  0  0  0  0  0  0  0  0
    8.7078    2.2818   -1.0282 H   0  0  0  0  0  0  0  0  0  0  0  0
  1  2  1  0
  2  3  1  0
  3  4  1  0
  4  5  1  0
  5  6  1  0
  6  7  2  0
  7  8  1  0
  8  9  2  0
  9 10  1  0
 10 11  2  0
 11 12  1  0
 12 13  1  0
 13 14  1  0
 14 15  1  0
 15 16  1  0
  9 17  1  0
 17 18  2  0
 18 19  1  0
 19 20  2  0
 20 21  1  0
 21 22  1  0
 22 23  2  0
 23 24  1  0
 24 25  2  0
 25 26  1  0
 26 27  2  0
 26 28  1  0
 28 29  3  0
 11  6  1  0
 20  8  1  0
 27 22  1  0
  1 30  1  0
  1 31  1  0
  1 32  1  0
  3 33  1  0
  3 34  1  0
  4 35  1  0
  4 36  1  0
  7 37  1  0
 10 38  1  0
 13 39  1  0
 13 40  1  0
 14 41  1  0
 14 42  1  0
 16 43  1  0
 16 44  1  0
 16 45  1  0
 18 46  1  0
 21 47  1  0
 23 48  1  0
 24 49  1  0
 25 50  1  0
 27 51  1  0
 29 52  1  0
M  END
>  <energy_abs>  (83) 
63.10596386409669

>  <SMILES>  (83) 
COCCOc1cc2c(cc1OCCOC)ncnc2Nc3cccc(c3)C#C

>  <cluster_no>  (83) 
83

>  <fda_drugs_id>  (83) 
AAKJLRGGTJKAMG-UHFFFAOYSA-N

>  <initial_conformation_id>  (83) 
218

>  <minimize_method>  (83) 
MMFF

$$$$

     RDKit          3D

 52 54  0  0  0  0  0  0  0  0999 V2000
   -3.6788   -1.9589   -5.0189 C   0  0  0  0  0  0  0  0  0  0  0  0
   -2.6241   -1.5263   -4.1687 O   0  0  0  0  0  0  0  0  0  0  0  0
   -3.1194   -1.0684   -2.9112 C   0  0  0  0  0  0  0  0  0  0  0  0
   -1.9458   -0.6493   -2.0312 C   0  0  0  0  0  0  0  0  0  0  0  0
   -2.4586   -0.1645   -0.7908 O   0  0  0  0  0  0  0  0  0  0  0  0
   -1.5597    0.0892    0.2081 C   0  0  0  0  0  0  0  0  0  0  0  0
   -0.1783    0.1768    0.0310 C   0  0  0  0  0  0  0  0  0  0  0  0
    0.6941    0.4128    1.1303 C   0  0  0  0  0  0  0  0  0  0  0  0
    0.1619    0.5441    2.4197 C   0  0  0  0  0  0  0  0  0  0  0  0
   -1.2124    0.4687    2.5810 C   0  0  0  0  0  0  0  0  0  0  0  0
   -2.0709    0.2697    1.4963 C   0  0  0  0  0  0  0  0  0  0  0  0
   -3.4038    0.1844    1.8059 O   0  0  0  0  0  0  0  0  0  0  0  0
   -4.2041    1.1536    1.1134 C   0  0  0  0  0  0  0  0  0  0  0  0
   -5.3406    1.6023    2.0374 C   0  0  0  0  0  0  0  0  0  0  0  0
   -4.8798    2.3112    3.1925 O   0  0  0  0  0  0  0  0  0  0  0  0
   -4.4912    3.6500    2.9218 C   0  0  0  0  0  0  0  0  0  0  0  0
    0.9229    0.7417    3.4996 N   0  0  0  0  0  0  0  0  0  0  0  0
    2.2434    0.7987    3.3028 C   0  0  0  0  0  0  0  0  0  0  0  0
    2.8703    0.6933    2.1289 N   0  0  0  0  0  0  0  0  0  0  0  0
    2.0984    0.5119    1.0423 C   0  0  0  0  0  0  0  0  0  0  0  0
    2.7092    0.4469   -0.2410 N   0  0  0  0  0  0  0  0  0  0  0  0
    4.0724    0.2291   -0.5479 C   0  0  0  0  0  0  0  0  0  0  0  0
    4.9084   -0.5566    0.2547 C   0  0  0  0  0  0  0  0  0  0  0  0
    6.2320   -0.8141   -0.1153 C   0  0  0  0  0  0  0  0  0  0  0  0
    6.7341   -0.3056   -1.3115 C   0  0  0  0  0  0  0  0  0  0  0  0
    5.9082    0.4504   -2.1411 C   0  0  0  0  0  0  0  0  0  0  0  0
    4.5831    0.7029   -1.7669 C   0  0  0  0  0  0  0  0  0  0  0  0
    6.4124    0.9639   -3.3776 C   0  0  0  0  0  0  0  0  0  0  0  0
    6.8357    1.3967   -4.4145 C   0  0  0  0  0  0  0  0  0  0  0  0
   -3.2427   -2.2993   -5.9619 H   0  0  0  0  0  0  0  0  0  0  0  0
   -4.3648   -1.1327   -5.2283 H   0  0  0  0  0  0  0  0  0  0  0  0
   -4.2207   -2.7935   -4.5632 H   0  0  0  0  0  0  0  0  0  0  0  0
   -3.7953   -0.2173   -3.0622 H   0  0  0  0  0  0  0  0  0  0  0  0
   -3.6896   -1.8642   -2.4158 H   0  0  0  0  0  0  0  0  0  0  0  0
   -1.2900   -1.5154   -1.8755 H   0  0  0  0  0  0  0  0  0  0  0  0
   -1.3772    0.1375   -2.5419 H   0  0  0  0  0  0  0  0  0  0  0  0
    0.2582    0.0439   -0.9541 H   0  0  0  0  0  0  0  0  0  0  0  0
   -1.6359    0.5712    3.5782 H   0  0  0  0  0  0  0  0  0  0  0  0
   -3.6097    2.0172    0.7930 H   0  0  0  0  0  0  0  0  0  0  0  0
   -4.6398    0.6716    0.2316 H   0  0  0  0  0  0  0  0  0  0  0  0
   -6.0672    2.2159    1.4925 H   0  0  0  0  0  0  0  0  0  0  0  0
   -5.8663    0.7175    2.4128 H   0  0  0  0  0  0  0  0  0  0  0  0
   -5.3173    4.2084    2.4703 H   0  0  0  0  0  0  0  0  0  0  0  0
   -4.2304    4.1266    3.8709 H   0  0  0  0  0  0  0  0  0  0  0  0
   -3.6121    3.6813    2.2730 H   0  0  0  0  0  0  0  0  0  0  0  0
    2.8642    0.9501    4.1794 H   0  0  0  0  0  0  0  0  0  0  0  0
    2.3112    1.1763   -0.8236 H   0  0  0  0  0  0  0  0  0  0  0  0
    4.5351   -0.9861    1.1811 H   0  0  0  0  0  0  0  0  0  0  0  0
    6.8648   -1.4181    0.5292 H   0  0  0  0  0  0  0  0  0  0  0  0
    7.7641   -0.5099   -1.5934 H   0  0  0  0  0  0  0  0  0  0  0  0
    3.9497    1.2813   -2.4340 H   0  0  0  0  0  0  0  0  0  0  0  0
    7.2126    1.7806   -5.3335 H   0  0  0  0  0  0  0  0  0  0  0  0
  1  2  1  0
  2  3  1  0
  3  4  1  0
  4  5  1  0
  5  6  1  0
  6  7  2  0
  7  8  1  0
  8  9  2  0
  9 10  1  0
 10 11  2  0
 11 12  1  0
 12 13  1  0
 13 14  1  0
 14 15  1  0
 15 16  1  0
  9 17  1  0
 17 18  2  0
 18 19  1  0
 19 20  2  0
 20 21  1  0
 21 22  1  0
 22 23  2  0
 23 24  1  0
 24 25  2  0
 25 26  1  0
 26 27  2  0
 26 28  1  0
 28 29  3  0
 11  6  1  0
 20  8  1  0
 27 22  1  0
  1 30  1  0
  1 31  1  0
  1 32  1  0
  3 33  1  0
  3 34  1  0
  4 35  1  0
  4 36  1  0
  7 37  1  0
 10 38  1  0
 13 39  1  0
 13 40  1  0
 14 41  1  0
 14 42  1  0
 16 43  1  0
 16 44  1  0
 16 45  1  0
 18 46  1  0
 21 47  1  0
 23 48  1  0
 24 49  1  0
 25 50  1  0
 27 51  1  0
 29 52  1  0
M  END
>  <energy_abs>  (84) 
58.52419939189528

>  <SMILES>  (84) 
COCCOc1cc2c(cc1OCCOC)ncnc2Nc3cccc(c3)C#C

>  <cluster_no>  (84) 
84

>  <fda_drugs_id>  (84) 
AAKJLRGGTJKAMG-UHFFFAOYSA-N

>  <initial_conformation_id>  (84) 
217

>  <minimize_method>  (84) 
MMFF

$$$$

     RDKit          3D

 52 54  0  0  0  0  0  0  0  0999 V2000
   -1.5020   -0.5163   -4.5953 C   0  0  0  0  0  0  0  0  0  0  0  0
   -1.3866   -0.8522   -3.2170 O   0  0  0  0  0  0  0  0  0  0  0  0
   -2.5835   -1.4733   -2.7296 C   0  0  0  0  0  0  0  0  0  0  0  0
   -2.4824   -1.7208   -1.2224 C   0  0  0  0  0  0  0  0  0  0  0  0
   -2.8155   -0.5314   -0.4966 O   0  0  0  0  0  0  0  0  0  0  0  0
   -1.8157    0.1645    0.1286 C   0  0  0  0  0  0  0  0  0  0  0  0
   -0.4842    0.1624   -0.2838 C   0  0  0  0  0  0  0  0  0  0  0  0
    0.4915    0.9507    0.3759 C   0  0  0  0  0  0  0  0  0  0  0  0
    0.1121    1.7267    1.4769 C   0  0  0  0  0  0  0  0  0  0  0  0
   -1.2190    1.7245    1.8761 C   0  0  0  0  0  0  0  0  0  0  0  0
   -2.1937    0.9727    1.2110 C   0  0  0  0  0  0  0  0  0  0  0  0
   -3.5194    0.9300    1.5568 O   0  0  0  0  0  0  0  0  0  0  0  0
   -4.0461    1.9121    2.4500 C   0  0  0  0  0  0  0  0  0  0  0  0
   -4.0313    1.4221    3.9026 C   0  0  0  0  0  0  0  0  0  0  0  0
   -4.7917    0.2290    4.1202 O   0  0  0  0  0  0  0  0  0  0  0  0
   -6.1967    0.4228    4.0527 C   0  0  0  0  0  0  0  0  0  0  0  0
    0.9778    2.4790    2.1622 N   0  0  0  0  0  0  0  0  0  0  0  0
    2.2485    2.4605    1.7468 C   0  0  0  0  0  0  0  0  0  0  0  0
    2.7291    1.7745    0.7072 N   0  0  0  0  0  0  0  0  0  0  0  0
    1.8526    1.0264    0.0128 C   0  0  0  0  0  0  0  0  0  0  0  0
    2.3000    0.2904   -1.1188 N   0  0  0  0  0  0  0  0  0  0  0  0
    3.6203    0.0306   -1.5494 C   0  0  0  0  0  0  0  0  0  0  0  0
    3.8379   -0.3008   -2.8976 C   0  0  0  0  0  0  0  0  0  0  0  0
    5.1132   -0.6271   -3.3670 C   0  0  0  0  0  0  0  0  0  0  0  0
    6.1928   -0.6492   -2.4863 C   0  0  0  0  0  0  0  0  0  0  0  0
    5.9916   -0.3597   -1.1365 C   0  0  0  0  0  0  0  0  0  0  0  0
    4.7111   -0.0356   -0.6726 C   0  0  0  0  0  0  0  0  0  0  0  0
    7.0931   -0.4075   -0.2232 C   0  0  0  0  0  0  0  0  0  0  0  0
    8.0151   -0.4505    0.5455 C   0  0  0  0  0  0  0  0  0  0  0  0
   -2.3051    0.2126   -4.7454 H   0  0  0  0  0  0  0  0  0  0  0  0
   -0.5593   -0.0668   -4.9189 H   0  0  0  0  0  0  0  0  0  0  0  0
   -1.6876   -1.4131   -5.1964 H   0  0  0  0  0  0  0  0  0  0  0  0
   -3.4430   -0.8290   -2.9494 H   0  0  0  0  0  0  0  0  0  0  0  0
   -2.7041   -2.4327   -3.2465 H   0  0  0  0  0  0  0  0  0  0  0  0
   -3.2478   -2.4556   -0.9455 H   0  0  0  0  0  0  0  0  0  0  0  0
   -1.5169   -2.1473   -0.9289 H   0  0  0  0  0  0  0  0  0  0  0  0
   -0.1801   -0.4411   -1.1315 H   0  0  0  0  0  0  0  0  0  0  0  0
   -1.4682    2.3313    2.7401 H   0  0  0  0  0  0  0  0  0  0  0  0
   -3.5391    2.8784    2.3459 H   0  0  0  0  0  0  0  0  0  0  0  0
   -5.0783    2.0858    2.1292 H   0  0  0  0  0  0  0  0  0  0  0  0
   -4.3899    2.2098    4.5753 H   0  0  0  0  0  0  0  0  0  0  0  0
   -3.0057    1.1810    4.1993 H   0  0  0  0  0  0  0  0  0  0  0  0
   -6.5121    0.6539    3.0313 H   0  0  0  0  0  0  0  0  0  0  0  0
   -6.5131    1.2163    4.7375 H   0  0  0  0  0  0  0  0  0  0  0  0
   -6.6833   -0.5100    4.3544 H   0  0  0  0  0  0  0  0  0  0  0  0
    2.9572    3.0627    2.3060 H   0  0  0  0  0  0  0  0  0  0  0  0
    1.6826    0.4789   -1.9031 H   0  0  0  0  0  0  0  0  0  0  0  0
    3.0102   -0.3026   -3.6022 H   0  0  0  0  0  0  0  0  0  0  0  0
    5.2622   -0.8667   -4.4165 H   0  0  0  0  0  0  0  0  0  0  0  0
    7.1836   -0.9044   -2.8534 H   0  0  0  0  0  0  0  0  0  0  0  0
    4.5709    0.1559    0.3876 H   0  0  0  0  0  0  0  0  0  0  0  0
    8.8287   -0.4922    1.2312 H   0  0  0  0  0  0  0  0  0  0  0  0
  1  2  1  0
  2  3  1  0
  3  4  1  0
  4  5  1  0
  5  6  1  0
  6  7  2  0
  7  8  1  0
  8  9  2  0
  9 10  1  0
 10 11  2  0
 11 12  1  0
 12 13  1  0
 13 14  1  0
 14 15  1  0
 15 16  1  0
  9 17  1  0
 17 18  2  0
 18 19  1  0
 19 20  2  0
 20 21  1  0
 21 22  1  0
 22 23  2  0
 23 24  1  0
 24 25  2  0
 25 26  1  0
 26 27  2  0
 26 28  1  0
 28 29  3  0
 11  6  1  0
 20  8  1  0
 27 22  1  0
  1 30  1  0
  1 31  1  0
  1 32  1  0
  3 33  1  0
  3 34  1  0
  4 35  1  0
  4 36  1  0
  7 37  1  0
 10 38  1  0
 13 39  1  0
 13 40  1  0
 14 41  1  0
 14 42  1  0
 16 43  1  0
 16 44  1  0
 16 45  1  0
 18 46  1  0
 21 47  1  0
 23 48  1  0
 24 49  1  0
 25 50  1  0
 27 51  1  0
 29 52  1  0
M  END
>  <energy_abs>  (85) 
63.26208914827541

>  <SMILES>  (85) 
COCCOc1cc2c(cc1OCCOC)ncnc2Nc3cccc(c3)C#C

>  <cluster_no>  (85) 
85

>  <fda_drugs_id>  (85) 
AAKJLRGGTJKAMG-UHFFFAOYSA-N

>  <initial_conformation_id>  (85) 
216

>  <minimize_method>  (85) 
MMFF

$$$$

     RDKit          3D

 52 54  0  0  0  0  0  0  0  0999 V2000
   -4.3674   -2.7376   -3.1128 C   0  0  0  0  0  0  0  0  0  0  0  0
   -2.9800   -2.5662   -2.8694 O   0  0  0  0  0  0  0  0  0  0  0  0
   -2.5499   -1.2086   -3.0173 C   0  0  0  0  0  0  0  0  0  0  0  0
   -2.8442   -0.3443   -1.7900 C   0  0  0  0  0  0  0  0  0  0  0  0
   -2.0564   -0.8322   -0.6923 O   0  0  0  0  0  0  0  0  0  0  0  0
   -1.4299    0.1800   -0.0154 C   0  0  0  0  0  0  0  0  0  0  0  0
   -0.0386    0.1934   -0.0832 C   0  0  0  0  0  0  0  0  0  0  0  0
    0.7043    1.1859    0.5995 C   0  0  0  0  0  0  0  0  0  0  0  0
    0.0237    2.1432    1.3595 C   0  0  0  0  0  0  0  0  0  0  0  0
   -1.3662    2.0863    1.4381 C   0  0  0  0  0  0  0  0  0  0  0  0
   -2.1147    1.1186    0.7627 C   0  0  0  0  0  0  0  0  0  0  0  0
   -3.4768    1.0063    0.7933 O   0  0  0  0  0  0  0  0  0  0  0  0
   -4.2419    1.8497    1.6595 C   0  0  0  0  0  0  0  0  0  0  0  0
   -4.2788    1.3133    3.0911 C   0  0  0  0  0  0  0  0  0  0  0  0
   -5.0975    0.1391    3.1314 O   0  0  0  0  0  0  0  0  0  0  0  0
   -5.1345   -0.4324    4.4313 C   0  0  0  0  0  0  0  0  0  0  0  0
    0.6565    3.1188    2.0164 N   0  0  0  0  0  0  0  0  0  0  0  0
    1.9888    3.1582    1.9003 C   0  0  0  0  0  0  0  0  0  0  0  0
    2.7458    2.3098    1.2056 N   0  0  0  0  0  0  0  0  0  0  0  0
    2.1088    1.3101    0.5696 C   0  0  0  0  0  0  0  0  0  0  0  0
    2.8605    0.3455   -0.1509 N   0  0  0  0  0  0  0  0  0  0  0  0
    4.1981    0.4031   -0.5979 C   0  0  0  0  0  0  0  0  0  0  0  0
    4.8615    1.6081   -0.8591 C   0  0  0  0  0  0  0  0  0  0  0  0
    6.1540    1.6224   -1.3904 C   0  0  0  0  0  0  0  0  0  0  0  0
    6.7978    0.4249   -1.6920 C   0  0  0  0  0  0  0  0  0  0  0  0
    6.1437   -0.7845   -1.4724 C   0  0  0  0  0  0  0  0  0  0  0  0
    4.8506   -0.7936   -0.9371 C   0  0  0  0  0  0  0  0  0  0  0  0
    6.7837   -2.0166   -1.8184 C   0  0  0  0  0  0  0  0  0  0  0  0
    7.3176   -3.0460   -2.1304 C   0  0  0  0  0  0  0  0  0  0  0  0
   -4.6082   -2.4897   -4.1552 H   0  0  0  0  0  0  0  0  0  0  0  0
   -4.6134   -3.7862   -2.9419 H   0  0  0  0  0  0  0  0  0  0  0  0
   -4.9703   -2.1234   -2.4343 H   0  0  0  0  0  0  0  0  0  0  0  0
   -2.9843   -0.7800   -3.9162 H   0  0  0  0  0  0  0  0  0  0  0  0
   -1.4720   -1.2472   -3.1584 H   0  0  0  0  0  0  0  0  0  0  0  0
   -2.6108    0.7025   -2.0311 H   0  0  0  0  0  0  0  0  0  0  0  0
   -3.8939   -0.4093   -1.5112 H   0  0  0  0  0  0  0  0  0  0  0  0
    0.4556   -0.5515   -0.6970 H   0  0  0  0  0  0  0  0  0  0  0  0
   -1.8414    2.8340    2.0599 H   0  0  0  0  0  0  0  0  0  0  0  0
   -3.8972    2.8853    1.6116 H   0  0  0  0  0  0  0  0  0  0  0  0
   -5.2590    1.8457    1.2572 H   0  0  0  0  0  0  0  0  0  0  0  0
   -4.7152    2.0673    3.7586 H   0  0  0  0  0  0  0  0  0  0  0  0
   -3.2711    1.0554    3.4367 H   0  0  0  0  0  0  0  0  0  0  0  0
   -5.6338    0.2432    5.1271 H   0  0  0  0  0  0  0  0  0  0  0  0
   -4.1277   -0.6561    4.7832 H   0  0  0  0  0  0  0  0  0  0  0  0
   -5.6978   -1.3614    4.3861 H   0  0  0  0  0  0  0  0  0  0  0  0
    2.5045    3.9528    2.4219 H   0  0  0  0  0  0  0  0  0  0  0  0
    2.6083   -0.5871    0.1724 H   0  0  0  0  0  0  0  0  0  0  0  0
    4.3729    2.5568   -0.6654 H   0  0  0  0  0  0  0  0  0  0  0  0
    6.6463    2.5684   -1.5843 H   0  0  0  0  0  0  0  0  0  0  0  0
    7.7974    0.4436   -2.1154 H   0  0  0  0  0  0  0  0  0  0  0  0
    4.3451   -1.7457   -0.7937 H   0  0  0  0  0  0  0  0  0  0  0  0
    7.7945   -3.9614   -2.4060 H   0  0  0  0  0  0  0  0  0  0  0  0
  1  2  1  0
  2  3  1  0
  3  4  1  0
  4  5  1  0
  5  6  1  0
  6  7  2  0
  7  8  1  0
  8  9  2  0
  9 10  1  0
 10 11  2  0
 11 12  1  0
 12 13  1  0
 13 14  1  0
 14 15  1  0
 15 16  1  0
  9 17  1  0
 17 18  2  0
 18 19  1  0
 19 20  2  0
 20 21  1  0
 21 22  1  0
 22 23  2  0
 23 24  1  0
 24 25  2  0
 25 26  1  0
 26 27  2  0
 26 28  1  0
 28 29  3  0
 11  6  1  0
 20  8  1  0
 27 22  1  0
  1 30  1  0
  1 31  1  0
  1 32  1  0
  3 33  1  0
  3 34  1  0
  4 35  1  0
  4 36  1  0
  7 37  1  0
 10 38  1  0
 13 39  1  0
 13 40  1  0
 14 41  1  0
 14 42  1  0
 16 43  1  0
 16 44  1  0
 16 45  1  0
 18 46  1  0
 21 47  1  0
 23 48  1  0
 24 49  1  0
 25 50  1  0
 27 51  1  0
 29 52  1  0
M  END
>  <energy_abs>  (86) 
63.19997984986428

>  <SMILES>  (86) 
COCCOc1cc2c(cc1OCCOC)ncnc2Nc3cccc(c3)C#C

>  <cluster_no>  (86) 
86

>  <fda_drugs_id>  (86) 
AAKJLRGGTJKAMG-UHFFFAOYSA-N

>  <initial_conformation_id>  (86) 
215

>  <minimize_method>  (86) 
MMFF

$$$$

     RDKit          3D

 52 54  0  0  0  0  0  0  0  0999 V2000
   -4.7605   -1.6616   -1.7181 C   0  0  0  0  0  0  0  0  0  0  0  0
   -3.9529   -0.5114   -1.5129 O   0  0  0  0  0  0  0  0  0  0  0  0
   -2.6280   -0.6413   -2.0399 C   0  0  0  0  0  0  0  0  0  0  0  0
   -1.7781   -1.7646   -1.4088 C   0  0  0  0  0  0  0  0  0  0  0  0
   -1.7092   -1.7133    0.0249 O   0  0  0  0  0  0  0  0  0  0  0  0
   -1.0705   -0.6095    0.5199 C   0  0  0  0  0  0  0  0  0  0  0  0
    0.2705   -0.3606    0.2417 C   0  0  0  0  0  0  0  0  0  0  0  0
    0.9151    0.7812    0.7760 C   0  0  0  0  0  0  0  0  0  0  0  0
    0.1884    1.6610    1.5909 C   0  0  0  0  0  0  0  0  0  0  0  0
   -1.1416    1.3747    1.8794 C   0  0  0  0  0  0  0  0  0  0  0  0
   -1.7810    0.2477    1.3603 C   0  0  0  0  0  0  0  0  0  0  0  0
   -3.0706   -0.1100    1.6413 O   0  0  0  0  0  0  0  0  0  0  0  0
   -3.9785    0.9550    1.9443 C   0  0  0  0  0  0  0  0  0  0  0  0
   -5.3980    0.3936    1.8730 C   0  0  0  0  0  0  0  0  0  0  0  0
   -6.3824    1.3606    2.2560 O   0  0  0  0  0  0  0  0  0  0  0  0
   -6.7558    2.2076    1.1742 C   0  0  0  0  0  0  0  0  0  0  0  0
    0.7269    2.7652    2.1138 N   0  0  0  0  0  0  0  0  0  0  0  0
    2.0085    3.0082    1.8194 C   0  0  0  0  0  0  0  0  0  0  0  0
    2.8031    2.2475    1.0634 N   0  0  0  0  0  0  0  0  0  0  0  0
    2.2640    1.1277    0.5512 C   0  0  0  0  0  0  0  0  0  0  0  0
    3.0701    0.2512   -0.2277 N   0  0  0  0  0  0  0  0  0  0  0  0
    4.3416    0.4812   -0.8032 C   0  0  0  0  0  0  0  0  0  0  0  0
    4.8065    1.7576   -1.1437 C   0  0  0  0  0  0  0  0  0  0  0  0
    6.0426    1.9323   -1.7773 C   0  0  0  0  0  0  0  0  0  0  0  0
    6.8191    0.8246   -2.1150 C   0  0  0  0  0  0  0  0  0  0  0  0
    6.3522   -0.4585   -1.8294 C   0  0  0  0  0  0  0  0  0  0  0  0
    5.1188   -0.6265   -1.1876 C   0  0  0  0  0  0  0  0  0  0  0  0
    7.1263   -1.6028   -2.2057 C   0  0  0  0  0  0  0  0  0  0  0  0
    7.7723   -2.5623   -2.5311 C   0  0  0  0  0  0  0  0  0  0  0  0
   -5.7994   -1.3810   -1.5152 H   0  0  0  0  0  0  0  0  0  0  0  0
   -4.6885   -2.0119   -2.7528 H   0  0  0  0  0  0  0  0  0  0  0  0
   -4.4777   -2.4639   -1.0229 H   0  0  0  0  0  0  0  0  0  0  0  0
   -2.6846   -0.7925   -3.1251 H   0  0  0  0  0  0  0  0  0  0  0  0
   -2.1396    0.3294   -1.8850 H   0  0  0  0  0  0  0  0  0  0  0  0
   -2.2250   -2.7359   -1.6479 H   0  0  0  0  0  0  0  0  0  0  0  0
   -0.7663   -1.7798   -1.8547 H   0  0  0  0  0  0  0  0  0  0  0  0
    0.8192   -1.0521   -0.3871 H   0  0  0  0  0  0  0  0  0  0  0  0
   -1.6671    2.0526    2.5440 H   0  0  0  0  0  0  0  0  0  0  0  0
   -3.7963    1.3388    2.9604 H   0  0  0  0  0  0  0  0  0  0  0  0
   -3.8692    1.7833    1.2272 H   0  0  0  0  0  0  0  0  0  0  0  0
   -5.6147   -0.0130    0.8754 H   0  0  0  0  0  0  0  0  0  0  0  0
   -5.4812   -0.4559    2.5663 H   0  0  0  0  0  0  0  0  0  0  0  0
   -7.5617    2.8599    1.5278 H   0  0  0  0  0  0  0  0  0  0  0  0
   -5.9122    2.8377    0.8623 H   0  0  0  0  0  0  0  0  0  0  0  0
   -7.1265    1.6196    0.3284 H   0  0  0  0  0  0  0  0  0  0  0  0
    2.4465    3.9087    2.2369 H   0  0  0  0  0  0  0  0  0  0  0  0
    3.0252   -0.6759    0.1846 H   0  0  0  0  0  0  0  0  0  0  0  0
    4.2130    2.6420   -0.9216 H   0  0  0  0  0  0  0  0  0  0  0  0
    6.3906    2.9352   -2.0150 H   0  0  0  0  0  0  0  0  0  0  0  0
    7.7763    0.9676   -2.6120 H   0  0  0  0  0  0  0  0  0  0  0  0
    4.7648   -1.6352   -0.9861 H   0  0  0  0  0  0  0  0  0  0  0  0
    8.3460   -3.4105   -2.8248 H   0  0  0  0  0  0  0  0  0  0  0  0
  1  2  1  0
  2  3  1  0
  3  4  1  0
  4  5  1  0
  5  6  1  0
  6  7  2  0
  7  8  1  0
  8  9  2  0
  9 10  1  0
 10 11  2  0
 11 12  1  0
 12 13  1  0
 13 14  1  0
 14 15  1  0
 15 16  1  0
  9 17  1  0
 17 18  2  0
 18 19  1  0
 19 20  2  0
 20 21  1  0
 21 22  1  0
 22 23  2  0
 23 24  1  0
 24 25  2  0
 25 26  1  0
 26 27  2  0
 26 28  1  0
 28 29  3  0
 11  6  1  0
 20  8  1  0
 27 22  1  0
  1 30  1  0
  1 31  1  0
  1 32  1  0
  3 33  1  0
  3 34  1  0
  4 35  1  0
  4 36  1  0
  7 37  1  0
 10 38  1  0
 13 39  1  0
 13 40  1  0
 14 41  1  0
 14 42  1  0
 16 43  1  0
 16 44  1  0
 16 45  1  0
 18 46  1  0
 21 47  1  0
 23 48  1  0
 24 49  1  0
 25 50  1  0
 27 51  1  0
 29 52  1  0
M  END
>  <energy_abs>  (87) 
62.45907849748957

>  <SMILES>  (87) 
COCCOc1cc2c(cc1OCCOC)ncnc2Nc3cccc(c3)C#C

>  <cluster_no>  (87) 
87

>  <fda_drugs_id>  (87) 
AAKJLRGGTJKAMG-UHFFFAOYSA-N

>  <initial_conformation_id>  (87) 
214

>  <minimize_method>  (87) 
MMFF

$$$$

     RDKit          3D

 52 54  0  0  0  0  0  0  0  0999 V2000
   -3.0064   -3.6303   -3.5753 C   0  0  0  0  0  0  0  0  0  0  0  0
   -2.8601   -3.9717   -2.2033 O   0  0  0  0  0  0  0  0  0  0  0  0
   -3.2033   -2.8998   -1.3247 C   0  0  0  0  0  0  0  0  0  0  0  0
   -2.0240   -1.9556   -1.0938 C   0  0  0  0  0  0  0  0  0  0  0  0
   -2.4439   -0.9176   -0.2115 O   0  0  0  0  0  0  0  0  0  0  0  0
   -1.5163    0.0112    0.1833 C   0  0  0  0  0  0  0  0  0  0  0  0
   -0.1949    0.0568   -0.2637 C   0  0  0  0  0  0  0  0  0  0  0  0
    0.6993    1.0588    0.1959 C   0  0  0  0  0  0  0  0  0  0  0  0
    0.2515    2.0036    1.1266 C   0  0  0  0  0  0  0  0  0  0  0  0
   -1.0666    1.9492    1.5610 C   0  0  0  0  0  0  0  0  0  0  0  0
   -1.9588    0.9735    1.1038 C   0  0  0  0  0  0  0  0  0  0  0  0
   -3.2709    0.8735    1.4938 O   0  0  0  0  0  0  0  0  0  0  0  0
   -3.7555    1.8065    2.4576 C   0  0  0  0  0  0  0  0  0  0  0  0
   -5.2158    1.4718    2.7606 C   0  0  0  0  0  0  0  0  0  0  0  0
   -5.7725    2.3381    3.7496 O   0  0  0  0  0  0  0  0  0  0  0  0
   -6.2248    3.5745    3.2140 C   0  0  0  0  0  0  0  0  0  0  0  0
    1.0395    2.9624    1.6191 N   0  0  0  0  0  0  0  0  0  0  0  0
    2.3050    2.9814    1.1893 C   0  0  0  0  0  0  0  0  0  0  0  0
    2.8474    2.1444    0.3029 N   0  0  0  0  0  0  0  0  0  0  0  0
    2.0466    1.1893   -0.2016 C   0  0  0  0  0  0  0  0  0  0  0  0
    2.5604    0.2979   -1.1836 N   0  0  0  0  0  0  0  0  0  0  0  0
    3.9112    0.0596   -1.5285 C   0  0  0  0  0  0  0  0  0  0  0  0
    4.2076   -0.4436   -2.8057 C   0  0  0  0  0  0  0  0  0  0  0  0
    5.5190   -0.7580   -3.1724 C   0  0  0  0  0  0  0  0  0  0  0  0
    6.5547   -0.5979   -2.2550 C   0  0  0  0  0  0  0  0  0  0  0  0
    6.2756   -0.1358   -0.9692 C   0  0  0  0  0  0  0  0  0  0  0  0
    4.9603    0.1774   -0.6077 C   0  0  0  0  0  0  0  0  0  0  0  0
    7.3338    0.0074   -0.0162 C   0  0  0  0  0  0  0  0  0  0  0  0
    8.2208    0.1275    0.7843 C   0  0  0  0  0  0  0  0  0  0  0  0
   -2.7369   -4.5035   -4.1756 H   0  0  0  0  0  0  0  0  0  0  0  0
   -2.3419   -2.8059   -3.8474 H   0  0  0  0  0  0  0  0  0  0  0  0
   -4.0452   -3.3660   -3.7954 H   0  0  0  0  0  0  0  0  0  0  0  0
   -4.0852   -2.3572   -1.6873 H   0  0  0  0  0  0  0  0  0  0  0  0
   -3.4941   -3.3432   -0.3654 H   0  0  0  0  0  0  0  0  0  0  0  0
   -1.6976   -1.5283   -2.0485 H   0  0  0  0  0  0  0  0  0  0  0  0
   -1.1935   -2.5260   -0.6598 H   0  0  0  0  0  0  0  0  0  0  0  0
    0.1762   -0.6881   -0.9596 H   0  0  0  0  0  0  0  0  0  0  0  0
   -1.3761    2.7020    2.2796 H   0  0  0  0  0  0  0  0  0  0  0  0
   -3.1764    1.7436    3.3870 H   0  0  0  0  0  0  0  0  0  0  0  0
   -3.6832    2.8262    2.0633 H   0  0  0  0  0  0  0  0  0  0  0  0
   -5.2698    0.4504    3.1546 H   0  0  0  0  0  0  0  0  0  0  0  0
   -5.8236    1.4756    1.8473 H   0  0  0  0  0  0  0  0  0  0  0  0
   -5.3945    4.1459    2.7909 H   0  0  0  0  0  0  0  0  0  0  0  0
   -6.6650    4.1583    4.0270 H   0  0  0  0  0  0  0  0  0  0  0  0
   -6.9933    3.4055    2.4536 H   0  0  0  0  0  0  0  0  0  0  0  0
    2.9513    3.7517    1.5958 H   0  0  0  0  0  0  0  0  0  0  0  0
    1.9743    0.3546   -2.0098 H   0  0  0  0  0  0  0  0  0  0  0  0
    3.4162   -0.5931   -3.5357 H   0  0  0  0  0  0  0  0  0  0  0  0
    5.7306   -1.1333   -4.1701 H   0  0  0  0  0  0  0  0  0  0  0  0
    7.5736   -0.8451   -2.5425 H   0  0  0  0  0  0  0  0  0  0  0  0
    4.7592    0.5102    0.4073 H   0  0  0  0  0  0  0  0  0  0  0  0
    9.0053    0.2348    1.4964 H   0  0  0  0  0  0  0  0  0  0  0  0
  1  2  1  0
  2  3  1  0
  3  4  1  0
  4  5  1  0
  5  6  1  0
  6  7  2  0
  7  8  1  0
  8  9  2  0
  9 10  1  0
 10 11  2  0
 11 12  1  0
 12 13  1  0
 13 14  1  0
 14 15  1  0
 15 16  1  0
  9 17  1  0
 17 18  2  0
 18 19  1  0
 19 20  2  0
 20 21  1  0
 21 22  1  0
 22 23  2  0
 23 24  1  0
 24 25  2  0
 25 26  1  0
 26 27  2  0
 26 28  1  0
 28 29  3  0
 11  6  1  0
 20  8  1  0
 27 22  1  0
  1 30  1  0
  1 31  1  0
  1 32  1  0
  3 33  1  0
  3 34  1  0
  4 35  1  0
  4 36  1  0
  7 37  1  0
 10 38  1  0
 13 39  1  0
 13 40  1  0
 14 41  1  0
 14 42  1  0
 16 43  1  0
 16 44  1  0
 16 45  1  0
 18 46  1  0
 21 47  1  0
 23 48  1  0
 24 49  1  0
 25 50  1  0
 27 51  1  0
 29 52  1  0
M  END
>  <energy_abs>  (88) 
58.930601778061686

>  <SMILES>  (88) 
COCCOc1cc2c(cc1OCCOC)ncnc2Nc3cccc(c3)C#C

>  <cluster_no>  (88) 
88

>  <fda_drugs_id>  (88) 
AAKJLRGGTJKAMG-UHFFFAOYSA-N

>  <initial_conformation_id>  (88) 
212

>  <minimize_method>  (88) 
MMFF

$$$$

     RDKit          3D

 52 54  0  0  0  0  0  0  0  0999 V2000
   -4.7288   -3.8100   -2.7240 C   0  0  0  0  0  0  0  0  0  0  0  0
   -3.6188   -2.9581   -2.4733 O   0  0  0  0  0  0  0  0  0  0  0  0
   -2.8384   -3.4193   -1.3637 C   0  0  0  0  0  0  0  0  0  0  0  0
   -1.7363   -2.4032   -1.0635 C   0  0  0  0  0  0  0  0  0  0  0  0
   -2.3139   -1.3020   -0.3531 O   0  0  0  0  0  0  0  0  0  0  0  0
   -1.4580   -0.3650    0.1665 C   0  0  0  0  0  0  0  0  0  0  0  0
   -0.1440   -0.1777   -0.2641 C   0  0  0  0  0  0  0  0  0  0  0  0
    0.6737    0.8327    0.3033 C   0  0  0  0  0  0  0  0  0  0  0  0
    0.1561    1.6420    1.3213 C   0  0  0  0  0  0  0  0  0  0  0  0
   -1.1568    1.4499    1.7343 C   0  0  0  0  0  0  0  0  0  0  0  0
   -1.9757    0.4647    1.1730 C   0  0  0  0  0  0  0  0  0  0  0  0
   -3.2756    0.2224    1.5347 O   0  0  0  0  0  0  0  0  0  0  0  0
   -3.8822    1.0080    2.5581 C   0  0  0  0  0  0  0  0  0  0  0  0
   -4.4737    2.2984    1.9960 C   0  0  0  0  0  0  0  0  0  0  0  0
   -5.0675    3.0454    3.0580 O   0  0  0  0  0  0  0  0  0  0  0  0
   -5.6512    4.2521    2.5839 C   0  0  0  0  0  0  0  0  0  0  0  0
    0.8727    2.6000    1.9151 N   0  0  0  0  0  0  0  0  0  0  0  0
    2.1338    2.7548    1.4996 C   0  0  0  0  0  0  0  0  0  0  0  0
    2.7364    2.0549    0.5364 N   0  0  0  0  0  0  0  0  0  0  0  0
    2.0073    1.1021   -0.0701 C   0  0  0  0  0  0  0  0  0  0  0  0
    2.5825    0.3578   -1.1376 N   0  0  0  0  0  0  0  0  0  0  0  0
    3.9451    0.2643   -1.5055 C   0  0  0  0  0  0  0  0  0  0  0  0
    4.2685   -0.0846   -2.8268 C   0  0  0  0  0  0  0  0  0  0  0  0
    5.5973   -0.2539   -3.2257 C   0  0  0  0  0  0  0  0  0  0  0  0
    6.6257   -0.1065   -2.2972 C   0  0  0  0  0  0  0  0  0  0  0  0
    6.3226    0.1967   -0.9698 C   0  0  0  0  0  0  0  0  0  0  0  0
    4.9902    0.3699   -0.5776 C   0  0  0  0  0  0  0  0  0  0  0  0
    7.3737    0.3128   -0.0052 C   0  0  0  0  0  0  0  0  0  0  0  0
    8.2541    0.4061    0.8059 C   0  0  0  0  0  0  0  0  0  0  0  0
   -5.2761   -3.4158   -3.5854 H   0  0  0  0  0  0  0  0  0  0  0  0
   -4.3889   -4.8244   -2.9584 H   0  0  0  0  0  0  0  0  0  0  0  0
   -5.4014   -3.8264   -1.8603 H   0  0  0  0  0  0  0  0  0  0  0  0
   -3.4860   -3.5494   -0.4884 H   0  0  0  0  0  0  0  0  0  0  0  0
   -2.3873   -4.3806   -1.6356 H   0  0  0  0  0  0  0  0  0  0  0  0
   -0.9742   -2.8821   -0.4366 H   0  0  0  0  0  0  0  0  0  0  0  0
   -1.2996   -2.0495   -2.0045 H   0  0  0  0  0  0  0  0  0  0  0  0
    0.2716   -0.8085   -1.0424 H   0  0  0  0  0  0  0  0  0  0  0  0
   -1.5195    2.1062    2.5193 H   0  0  0  0  0  0  0  0  0  0  0  0
   -3.2161    1.1831    3.4108 H   0  0  0  0  0  0  0  0  0  0  0  0
   -4.7023    0.4079    2.9720 H   0  0  0  0  0  0  0  0  0  0  0  0
   -5.2288    2.0590    1.2368 H   0  0  0  0  0  0  0  0  0  0  0  0
   -3.6981    2.9007    1.5105 H   0  0  0  0  0  0  0  0  0  0  0  0
   -6.4454    4.0368    1.8621 H   0  0  0  0  0  0  0  0  0  0  0  0
   -6.0873    4.7802    3.4361 H   0  0  0  0  0  0  0  0  0  0  0  0
   -4.8896    4.8925    2.1268 H   0  0  0  0  0  0  0  0  0  0  0  0
    2.7218    3.5247    1.9878 H   0  0  0  0  0  0  0  0  0  0  0  0
    1.9889    0.4606   -1.9548 H   0  0  0  0  0  0  0  0  0  0  0  0
    3.4840   -0.2251   -3.5665 H   0  0  0  0  0  0  0  0  0  0  0  0
    5.8279   -0.5066   -4.2570 H   0  0  0  0  0  0  0  0  0  0  0  0
    7.6580   -0.2419   -2.6098 H   0  0  0  0  0  0  0  0  0  0  0  0
    4.7725    0.5823    0.4661 H   0  0  0  0  0  0  0  0  0  0  0  0
    9.0338    0.4915    1.5263 H   0  0  0  0  0  0  0  0  0  0  0  0
  1  2  1  0
  2  3  1  0
  3  4  1  0
  4  5  1  0
  5  6  1  0
  6  7  2  0
  7  8  1  0
  8  9  2  0
  9 10  1  0
 10 11  2  0
 11 12  1  0
 12 13  1  0
 13 14  1  0
 14 15  1  0
 15 16  1  0
  9 17  1  0
 17 18  2  0
 18 19  1  0
 19 20  2  0
 20 21  1  0
 21 22  1  0
 22 23  2  0
 23 24  1  0
 24 25  2  0
 25 26  1  0
 26 27  2  0
 26 28  1  0
 28 29  3  0
 11  6  1  0
 20  8  1  0
 27 22  1  0
  1 30  1  0
  1 31  1  0
  1 32  1  0
  3 33  1  0
  3 34  1  0
  4 35  1  0
  4 36  1  0
  7 37  1  0
 10 38  1  0
 13 39  1  0
 13 40  1  0
 14 41  1  0
 14 42  1  0
 16 43  1  0
 16 44  1  0
 16 45  1  0
 18 46  1  0
 21 47  1  0
 23 48  1  0
 24 49  1  0
 25 50  1  0
 27 51  1  0
 29 52  1  0
M  END
>  <energy_abs>  (89) 
59.10124081100608

>  <SMILES>  (89) 
COCCOc1cc2c(cc1OCCOC)ncnc2Nc3cccc(c3)C#C

>  <cluster_no>  (89) 
89

>  <fda_drugs_id>  (89) 
AAKJLRGGTJKAMG-UHFFFAOYSA-N

>  <initial_conformation_id>  (89) 
211

>  <minimize_method>  (89) 
MMFF

$$$$

     RDKit          3D

 52 54  0  0  0  0  0  0  0  0999 V2000
   -4.7417   -3.9852   -1.7565 C   0  0  0  0  0  0  0  0  0  0  0  0
   -3.3247   -4.0773   -1.6852 O   0  0  0  0  0  0  0  0  0  0  0  0
   -2.6636   -2.8654   -2.0517 C   0  0  0  0  0  0  0  0  0  0  0  0
   -2.7118   -1.8094   -0.9461 C   0  0  0  0  0  0  0  0  0  0  0  0
   -1.9300   -0.6827   -1.3642 O   0  0  0  0  0  0  0  0  0  0  0  0
   -1.3564   -0.0084   -0.3165 C   0  0  0  0  0  0  0  0  0  0  0  0
    0.0268    0.1488   -0.3975 C   0  0  0  0  0  0  0  0  0  0  0  0
    0.7375    0.8462    0.6062 C   0  0  0  0  0  0  0  0  0  0  0  0
    0.0312    1.3822    1.6896 C   0  0  0  0  0  0  0  0  0  0  0  0
   -1.3529    1.2359    1.7376 C   0  0  0  0  0  0  0  0  0  0  0  0
   -2.0693    0.5592    0.7447 C   0  0  0  0  0  0  0  0  0  0  0  0
   -3.4297    0.4253    0.7121 O   0  0  0  0  0  0  0  0  0  0  0  0
   -4.2211    0.9865    1.7585 C   0  0  0  0  0  0  0  0  0  0  0  0
   -4.5449    2.4543    1.4903 C   0  0  0  0  0  0  0  0  0  0  0  0
   -5.3625    2.9540    2.5474 O   0  0  0  0  0  0  0  0  0  0  0  0
   -5.6956    4.3222    2.3484 C   0  0  0  0  0  0  0  0  0  0  0  0
    0.6313    2.0399    2.6842 N   0  0  0  0  0  0  0  0  0  0  0  0
    1.9610    2.1602    2.6107 C   0  0  0  0  0  0  0  0  0  0  0  0
    2.7412    1.6975    1.6315 N   0  0  0  0  0  0  0  0  0  0  0  0
    2.1332    1.0494    0.6225 C   0  0  0  0  0  0  0  0  0  0  0  0
    2.9088    0.5589   -0.4632 N   0  0  0  0  0  0  0  0  0  0  0  0
    4.3117    0.4153   -0.5560 C   0  0  0  0  0  0  0  0  0  0  0  0
    5.1267    0.1861    0.5588 C   0  0  0  0  0  0  0  0  0  0  0  0
    6.5032   -0.0155    0.4200 C   0  0  0  0  0  0  0  0  0  0  0  0
    7.0841   -0.0192   -0.8458 C   0  0  0  0  0  0  0  0  0  0  0  0
    6.2849    0.1657   -1.9724 C   0  0  0  0  0  0  0  0  0  0  0  0
    4.9080    0.3702   -1.8268 C   0  0  0  0  0  0  0  0  0  0  0  0
    6.8707    0.1410   -3.2781 C   0  0  0  0  0  0  0  0  0  0  0  0
    7.3625    0.1188   -4.3734 C   0  0  0  0  0  0  0  0  0  0  0  0
   -5.1587   -4.9717   -1.5345 H   0  0  0  0  0  0  0  0  0  0  0  0
   -5.1250   -3.2782   -1.0162 H   0  0  0  0  0  0  0  0  0  0  0  0
   -5.0602   -3.6915   -2.7613 H   0  0  0  0  0  0  0  0  0  0  0  0
   -1.6148   -3.1165   -2.2556 H   0  0  0  0  0  0  0  0  0  0  0  0
   -3.0678   -2.4712   -2.9931 H   0  0  0  0  0  0  0  0  0  0  0  0
   -3.7491   -1.4927   -0.7919 H   0  0  0  0  0  0  0  0  0  0  0  0
   -2.3415   -2.2498   -0.0095 H   0  0  0  0  0  0  0  0  0  0  0  0
    0.5503   -0.2998   -1.2386 H   0  0  0  0  0  0  0  0  0  0  0  0
   -1.8545    1.6868    2.5886 H   0  0  0  0  0  0  0  0  0  0  0  0
   -3.7899    0.8221    2.7532 H   0  0  0  0  0  0  0  0  0  0  0  0
   -5.1632    0.4248    1.7745 H   0  0  0  0  0  0  0  0  0  0  0  0
   -3.6261    3.0468    1.4215 H   0  0  0  0  0  0  0  0  0  0  0  0
   -5.0708    2.5474    0.5326 H   0  0  0  0  0  0  0  0  0  0  0  0
   -6.2663    4.4469    1.4227 H   0  0  0  0  0  0  0  0  0  0  0  0
   -6.3143    4.6520    3.1877 H   0  0  0  0  0  0  0  0  0  0  0  0
   -4.7904    4.9367    2.3196 H   0  0  0  0  0  0  0  0  0  0  0  0
    2.4525    2.6857    3.4223 H   0  0  0  0  0  0  0  0  0  0  0  0
    2.5120    0.8998   -1.3329 H   0  0  0  0  0  0  0  0  0  0  0  0
    4.6993    0.1560    1.5572 H   0  0  0  0  0  0  0  0  0  0  0  0
    7.1170   -0.1759    1.3026 H   0  0  0  0  0  0  0  0  0  0  0  0
    8.1544   -0.1780   -0.9469 H   0  0  0  0  0  0  0  0  0  0  0  0
    4.2991    0.4983   -2.7180 H   0  0  0  0  0  0  0  0  0  0  0  0
    7.8020    0.1016   -5.3429 H   0  0  0  0  0  0  0  0  0  0  0  0
  1  2  1  0
  2  3  1  0
  3  4  1  0
  4  5  1  0
  5  6  1  0
  6  7  2  0
  7  8  1  0
  8  9  2  0
  9 10  1  0
 10 11  2  0
 11 12  1  0
 12 13  1  0
 13 14  1  0
 14 15  1  0
 15 16  1  0
  9 17  1  0
 17 18  2  0
 18 19  1  0
 19 20  2  0
 20 21  1  0
 21 22  1  0
 22 23  2  0
 23 24  1  0
 24 25  2  0
 25 26  1  0
 26 27  2  0
 26 28  1  0
 28 29  3  0
 11  6  1  0
 20  8  1  0
 27 22  1  0
  1 30  1  0
  1 31  1  0
  1 32  1  0
  3 33  1  0
  3 34  1  0
  4 35  1  0
  4 36  1  0
  7 37  1  0
 10 38  1  0
 13 39  1  0
 13 40  1  0
 14 41  1  0
 14 42  1  0
 16 43  1  0
 16 44  1  0
 16 45  1  0
 18 46  1  0
 21 47  1  0
 23 48  1  0
 24 49  1  0
 25 50  1  0
 27 51  1  0
 29 52  1  0
M  END
>  <energy_abs>  (90) 
57.95750527564023

>  <SMILES>  (90) 
COCCOc1cc2c(cc1OCCOC)ncnc2Nc3cccc(c3)C#C

>  <cluster_no>  (90) 
90

>  <fda_drugs_id>  (90) 
AAKJLRGGTJKAMG-UHFFFAOYSA-N

>  <initial_conformation_id>  (90) 
210

>  <minimize_method>  (90) 
MMFF

$$$$

     RDKit          3D

 52 54  0  0  0  0  0  0  0  0999 V2000
   -2.1413   -1.7524   -4.1591 C   0  0  0  0  0  0  0  0  0  0  0  0
   -2.9465   -2.4783   -3.2393 O   0  0  0  0  0  0  0  0  0  0  0  0
   -2.4194   -2.4920   -1.9122 C   0  0  0  0  0  0  0  0  0  0  0  0
   -2.5297   -1.1424   -1.2021 C   0  0  0  0  0  0  0  0  0  0  0  0
   -1.9221   -1.2641    0.0932 O   0  0  0  0  0  0  0  0  0  0  0  0
   -1.3056   -0.0923    0.4403 C   0  0  0  0  0  0  0  0  0  0  0  0
    0.0665   -0.0001    0.2206 C   0  0  0  0  0  0  0  0  0  0  0  0
    0.7738    1.1670    0.5884 C   0  0  0  0  0  0  0  0  0  0  0  0
    0.0761    2.2322    1.1756 C   0  0  0  0  0  0  0  0  0  0  0  0
   -1.2940    2.1052    1.4001 C   0  0  0  0  0  0  0  0  0  0  0  0
   -1.9984    0.9466    1.0579 C   0  0  0  0  0  0  0  0  0  0  0  0
   -3.3383    0.7567    1.2586 O   0  0  0  0  0  0  0  0  0  0  0  0
   -3.9474    1.5535    2.2755 C   0  0  0  0  0  0  0  0  0  0  0  0
   -5.3236    0.9717    2.5850 C   0  0  0  0  0  0  0  0  0  0  0  0
   -5.9415    1.7448    3.6127 O   0  0  0  0  0  0  0  0  0  0  0  0
   -7.2258    1.2347    3.9487 C   0  0  0  0  0  0  0  0  0  0  0  0
    0.6788    3.3693    1.5316 N   0  0  0  0  0  0  0  0  0  0  0  0
    1.9933    3.4559    1.2943 C   0  0  0  0  0  0  0  0  0  0  0  0
    2.7612    2.5138    0.7379 N   0  0  0  0  0  0  0  0  0  0  0  0
    2.1573    1.3630    0.3977 C   0  0  0  0  0  0  0  0  0  0  0  0
    2.9214    0.3085   -0.1657 N   0  0  0  0  0  0  0  0  0  0  0  0
    4.2156    0.3313   -0.7287 C   0  0  0  0  0  0  0  0  0  0  0  0
    4.7833    1.4790   -1.2891 C   0  0  0  0  0  0  0  0  0  0  0  0
    6.0339    1.4348   -1.9146 C   0  0  0  0  0  0  0  0  0  0  0  0
    6.7240    0.2276   -2.0182 C   0  0  0  0  0  0  0  0  0  0  0  0
    6.1633   -0.9320   -1.4930 C   0  0  0  0  0  0  0  0  0  0  0  0
    4.9139   -0.8811   -0.8645 C   0  0  0  0  0  0  0  0  0  0  0  0
    6.8563   -2.1789   -1.6060 C   0  0  0  0  0  0  0  0  0  0  0  0
    7.4338   -3.2274   -1.6961 C   0  0  0  0  0  0  0  0  0  0  0  0
   -1.0772   -1.9651   -4.0133 H   0  0  0  0  0  0  0  0  0  0  0  0
   -2.4168   -2.0554   -5.1751 H   0  0  0  0  0  0  0  0  0  0  0  0
   -2.3289   -0.6805   -4.0536 H   0  0  0  0  0  0  0  0  0  0  0  0
   -1.3809   -2.8480   -1.9200 H   0  0  0  0  0  0  0  0  0  0  0  0
   -2.9861   -3.2381   -1.3443 H   0  0  0  0  0  0  0  0  0  0  0  0
   -3.5844   -0.8724   -1.0855 H   0  0  0  0  0  0  0  0  0  0  0  0
   -2.0537   -0.3594   -1.8100 H   0  0  0  0  0  0  0  0  0  0  0  0
    0.5749   -0.8365   -0.2565 H   0  0  0  0  0  0  0  0  0  0  0  0
   -1.8024    2.9543    1.8496 H   0  0  0  0  0  0  0  0  0  0  0  0
   -4.0625    2.5893    1.9299 H   0  0  0  0  0  0  0  0  0  0  0  0
   -3.3444    1.5553    3.1945 H   0  0  0  0  0  0  0  0  0  0  0  0
   -5.9452    0.9845    1.6805 H   0  0  0  0  0  0  0  0  0  0  0  0
   -5.2241   -0.0726    2.9076 H   0  0  0  0  0  0  0  0  0  0  0  0
   -7.6504    1.8629    4.7354 H   0  0  0  0  0  0  0  0  0  0  0  0
   -7.1452    0.2108    4.3255 H   0  0  0  0  0  0  0  0  0  0  0  0
   -7.8901    1.2654    3.0803 H   0  0  0  0  0  0  0  0  0  0  0  0
    2.4841    4.3799    1.5831 H   0  0  0  0  0  0  0  0  0  0  0  0
    2.7550   -0.5437    0.3587 H   0  0  0  0  0  0  0  0  0  0  0  0
    4.2598    2.4317   -1.2460 H   0  0  0  0  0  0  0  0  0  0  0  0
    6.4637    2.3459   -2.3244 H   0  0  0  0  0  0  0  0  0  0  0  0
    7.6947    0.2010   -2.5079 H   0  0  0  0  0  0  0  0  0  0  0  0
    4.4882   -1.7985   -0.4694 H   0  0  0  0  0  0  0  0  0  0  0  0
    7.9473   -4.1598   -1.7739 H   0  0  0  0  0  0  0  0  0  0  0  0
  1  2  1  0
  2  3  1  0
  3  4  1  0
  4  5  1  0
  5  6  1  0
  6  7  2  0
  7  8  1  0
  8  9  2  0
  9 10  1  0
 10 11  2  0
 11 12  1  0
 12 13  1  0
 13 14  1  0
 14 15  1  0
 15 16  1  0
  9 17  1  0
 17 18  2  0
 18 19  1  0
 19 20  2  0
 20 21  1  0
 21 22  1  0
 22 23  2  0
 23 24  1  0
 24 25  2  0
 25 26  1  0
 26 27  2  0
 26 28  1  0
 28 29  3  0
 11  6  1  0
 20  8  1  0
 27 22  1  0
  1 30  1  0
  1 31  1  0
  1 32  1  0
  3 33  1  0
  3 34  1  0
  4 35  1  0
  4 36  1  0
  7 37  1  0
 10 38  1  0
 13 39  1  0
 13 40  1  0
 14 41  1  0
 14 42  1  0
 16 43  1  0
 16 44  1  0
 16 45  1  0
 18 46  1  0
 21 47  1  0
 23 48  1  0
 24 49  1  0
 25 50  1  0
 27 51  1  0
 29 52  1  0
M  END
>  <energy_abs>  (91) 
57.63314915111302

>  <SMILES>  (91) 
COCCOc1cc2c(cc1OCCOC)ncnc2Nc3cccc(c3)C#C

>  <cluster_no>  (91) 
91

>  <fda_drugs_id>  (91) 
AAKJLRGGTJKAMG-UHFFFAOYSA-N

>  <initial_conformation_id>  (91) 
209

>  <minimize_method>  (91) 
MMFF

$$$$

     RDKit          3D

 52 54  0  0  0  0  0  0  0  0999 V2000
   -4.8856   -1.5558   -3.7565 C   0  0  0  0  0  0  0  0  0  0  0  0
   -4.1015   -0.4070   -3.4625 O   0  0  0  0  0  0  0  0  0  0  0  0
   -3.7948   -0.2853   -2.0723 C   0  0  0  0  0  0  0  0  0  0  0  0
   -2.5416   -1.0801   -1.7036 C   0  0  0  0  0  0  0  0  0  0  0  0
   -2.2761   -1.0006   -0.2972 O   0  0  0  0  0  0  0  0  0  0  0  0
   -1.4533    0.0437    0.0196 C   0  0  0  0  0  0  0  0  0  0  0  0
   -0.0976   -0.0136   -0.2934 C   0  0  0  0  0  0  0  0  0  0  0  0
    0.7675    1.0582    0.0413 C   0  0  0  0  0  0  0  0  0  0  0  0
    0.2528    2.1730    0.7194 C   0  0  0  0  0  0  0  0  0  0  0  0
   -1.0988    2.2002    1.0360 C   0  0  0  0  0  0  0  0  0  0  0  0
   -1.9470    1.1387    0.7201 C   0  0  0  0  0  0  0  0  0  0  0  0
   -3.2663    1.2720    1.0620 O   0  0  0  0  0  0  0  0  0  0  0  0
   -3.6496    0.3293    2.0705 C   0  0  0  0  0  0  0  0  0  0  0  0
   -4.9335    0.8315    2.7293 C   0  0  0  0  0  0  0  0  0  0  0  0
   -5.4044   -0.0422    3.7587 O   0  0  0  0  0  0  0  0  0  0  0  0
   -4.7070    0.1199    4.9886 C   0  0  0  0  0  0  0  0  0  0  0  0
    1.0116    3.2094    1.0812 N   0  0  0  0  0  0  0  0  0  0  0  0
    2.3116    3.1386    0.7776 C   0  0  0  0  0  0  0  0  0  0  0  0
    2.9172    2.1380    0.1345 N   0  0  0  0  0  0  0  0  0  0  0  0
    2.1461    1.1049   -0.2473 C   0  0  0  0  0  0  0  0  0  0  0  0
    2.7263    0.0408   -0.9929 N   0  0  0  0  0  0  0  0  0  0  0  0
    4.1002   -0.2430   -1.1739 C   0  0  0  0  0  0  0  0  0  0  0  0
    4.5113   -0.9145   -2.3379 C   0  0  0  0  0  0  0  0  0  0  0  0
    5.8492   -1.2674   -2.5330 C   0  0  0  0  0  0  0  0  0  0  0  0
    6.7943   -0.9780   -1.5507 C   0  0  0  0  0  0  0  0  0  0  0  0
    6.3985   -0.3460   -0.3706 C   0  0  0  0  0  0  0  0  0  0  0  0
    5.0580    0.0090   -0.1823 C   0  0  0  0  0  0  0  0  0  0  0  0
    7.3621   -0.0727    0.6524 C   0  0  0  0  0  0  0  0  0  0  0  0
    8.1694    0.1534    1.5124 C   0  0  0  0  0  0  0  0  0  0  0  0
   -5.0790   -1.5717   -4.8323 H   0  0  0  0  0  0  0  0  0  0  0  0
   -5.8443   -1.5072   -3.2332 H   0  0  0  0  0  0  0  0  0  0  0  0
   -4.3553   -2.4727   -3.4879 H   0  0  0  0  0  0  0  0  0  0  0  0
   -4.6494   -0.5736   -1.4489 H   0  0  0  0  0  0  0  0  0  0  0  0
   -3.6194    0.7773   -1.8759 H   0  0  0  0  0  0  0  0  0  0  0  0
   -2.6944   -2.1403   -1.9330 H   0  0  0  0  0  0  0  0  0  0  0  0
   -1.6895   -0.7693   -2.3210 H   0  0  0  0  0  0  0  0  0  0  0  0
    0.2923   -0.9023   -0.7805 H   0  0  0  0  0  0  0  0  0  0  0  0
   -1.5004    3.0668    1.5546 H   0  0  0  0  0  0  0  0  0  0  0  0
   -3.8399   -0.6533    1.6256 H   0  0  0  0  0  0  0  0  0  0  0  0
   -2.8591    0.2151    2.8223 H   0  0  0  0  0  0  0  0  0  0  0  0
   -5.7194    0.8896    1.9669 H   0  0  0  0  0  0  0  0  0  0  0  0
   -4.8109    1.8537    3.1129 H   0  0  0  0  0  0  0  0  0  0  0  0
   -5.2013   -0.4967    5.7467 H   0  0  0  0  0  0  0  0  0  0  0  0
   -4.7347    1.1645    5.3160 H   0  0  0  0  0  0  0  0  0  0  0  0
   -3.6720   -0.2177    4.8957 H   0  0  0  0  0  0  0  0  0  0  0  0
    2.9337    3.9739    1.0806 H   0  0  0  0  0  0  0  0  0  0  0  0
    2.2134   -0.0564   -1.8635 H   0  0  0  0  0  0  0  0  0  0  0  0
    3.7918   -1.1640   -3.1142 H   0  0  0  0  0  0  0  0  0  0  0  0
    6.1515   -1.7715   -3.4483 H   0  0  0  0  0  0  0  0  0  0  0  0
    7.8336   -1.2565   -1.7049 H   0  0  0  0  0  0  0  0  0  0  0  0
    4.7617    0.4795    0.7529 H   0  0  0  0  0  0  0  0  0  0  0  0
    8.8826    0.3535    2.2779 H   0  0  0  0  0  0  0  0  0  0  0  0
  1  2  1  0
  2  3  1  0
  3  4  1  0
  4  5  1  0
  5  6  1  0
  6  7  2  0
  7  8  1  0
  8  9  2  0
  9 10  1  0
 10 11  2  0
 11 12  1  0
 12 13  1  0
 13 14  1  0
 14 15  1  0
 15 16  1  0
  9 17  1  0
 17 18  2  0
 18 19  1  0
 19 20  2  0
 20 21  1  0
 21 22  1  0
 22 23  2  0
 23 24  1  0
 24 25  2  0
 25 26  1  0
 26 27  2  0
 26 28  1  0
 28 29  3  0
 11  6  1  0
 20  8  1  0
 27 22  1  0
  1 30  1  0
  1 31  1  0
  1 32  1  0
  3 33  1  0
  3 34  1  0
  4 35  1  0
  4 36  1  0
  7 37  1  0
 10 38  1  0
 13 39  1  0
 13 40  1  0
 14 41  1  0
 14 42  1  0
 16 43  1  0
 16 44  1  0
 16 45  1  0
 18 46  1  0
 21 47  1  0
 23 48  1  0
 24 49  1  0
 25 50  1  0
 27 51  1  0
 29 52  1  0
M  END
>  <energy_abs>  (92) 
60.20984704077423

>  <SMILES>  (92) 
COCCOc1cc2c(cc1OCCOC)ncnc2Nc3cccc(c3)C#C

>  <cluster_no>  (92) 
92

>  <fda_drugs_id>  (92) 
AAKJLRGGTJKAMG-UHFFFAOYSA-N

>  <initial_conformation_id>  (92) 
208

>  <minimize_method>  (92) 
MMFF

$$$$

     RDKit          3D

 52 54  0  0  0  0  0  0  0  0999 V2000
   -3.0621   -1.9032   -4.9710 C   0  0  0  0  0  0  0  0  0  0  0  0
   -3.0802   -2.6589   -3.7673 O   0  0  0  0  0  0  0  0  0  0  0  0
   -3.4179   -1.8737   -2.6236 C   0  0  0  0  0  0  0  0  0  0  0  0
   -2.1939   -1.1751   -2.0325 C   0  0  0  0  0  0  0  0  0  0  0  0
   -2.6106   -0.4199   -0.8976 O   0  0  0  0  0  0  0  0  0  0  0  0
   -1.6569    0.2609   -0.1860 C   0  0  0  0  0  0  0  0  0  0  0  0
   -0.2986    0.2930   -0.5054 C   0  0  0  0  0  0  0  0  0  0  0  0
    0.6226    1.0242    0.2884 C   0  0  0  0  0  0  0  0  0  0  0  0
    0.1620    1.7052    1.4210 C   0  0  0  0  0  0  0  0  0  0  0  0
   -1.1930    1.6679    1.7259 C   0  0  0  0  0  0  0  0  0  0  0  0
   -2.1122    0.9661    0.9394 C   0  0  0  0  0  0  0  0  0  0  0  0
   -3.4589    0.8872    1.1874 O   0  0  0  0  0  0  0  0  0  0  0  0
   -4.0281    1.6727    2.2327 C   0  0  0  0  0  0  0  0  0  0  0  0
   -4.0195    0.9162    3.5614 C   0  0  0  0  0  0  0  0  0  0  0  0
   -4.5290    1.7101    4.6334 O   0  0  0  0  0  0  0  0  0  0  0  0
   -5.9495    1.7320    4.6837 C   0  0  0  0  0  0  0  0  0  0  0  0
    0.9729    2.3927    2.2288 N   0  0  0  0  0  0  0  0  0  0  0  0
    2.2719    2.4010    1.9144 C   0  0  0  0  0  0  0  0  0  0  0  0
    2.8301    1.8008    0.8615 N   0  0  0  0  0  0  0  0  0  0  0  0
    2.0086    1.1203    0.0431 C   0  0  0  0  0  0  0  0  0  0  0  0
    2.5430    0.4982   -1.1190 N   0  0  0  0  0  0  0  0  0  0  0  0
    3.8976    0.2273   -1.4224 C   0  0  0  0  0  0  0  0  0  0  0  0
    4.2771    0.0832   -2.7669 C   0  0  0  0  0  0  0  0  0  0  0  0
    5.5887   -0.2499   -3.1161 C   0  0  0  0  0  0  0  0  0  0  0  0
    6.5382   -0.4706   -2.1213 C   0  0  0  0  0  0  0  0  0  0  0  0
    6.1717   -0.3700   -0.7796 C   0  0  0  0  0  0  0  0  0  0  0  0
    4.8568   -0.0360   -0.4359 C   0  0  0  0  0  0  0  0  0  0  0  0
    7.1387   -0.6192    0.2457 C   0  0  0  0  0  0  0  0  0  0  0  0
    7.9492   -0.8282    1.1068 C   0  0  0  0  0  0  0  0  0  0  0  0
   -4.0483   -1.4714   -5.1669 H   0  0  0  0  0  0  0  0  0  0  0  0
   -2.8097   -2.5772   -5.7941 H   0  0  0  0  0  0  0  0  0  0  0  0
   -2.3068   -1.1139   -4.9273 H   0  0  0  0  0  0  0  0  0  0  0  0
   -4.2142   -1.1560   -2.8570 H   0  0  0  0  0  0  0  0  0  0  0  0
   -3.8344   -2.5535   -1.8713 H   0  0  0  0  0  0  0  0  0  0  0  0
   -1.7462   -0.5129   -2.7820 H   0  0  0  0  0  0  0  0  0  0  0  0
   -1.4561   -1.9349   -1.7466 H   0  0  0  0  0  0  0  0  0  0  0  0
    0.0793   -0.2600   -1.3588 H   0  0  0  0  0  0  0  0  0  0  0  0
   -1.5049    2.2045    2.6169 H   0  0  0  0  0  0  0  0  0  0  0  0
   -3.5801    2.6701    2.3130 H   0  0  0  0  0  0  0  0  0  0  0  0
   -5.0670    1.8619    1.9398 H   0  0  0  0  0  0  0  0  0  0  0  0
   -2.9922    0.6450    3.8257 H   0  0  0  0  0  0  0  0  0  0  0  0
   -4.5666   -0.0312    3.4798 H   0  0  0  0  0  0  0  0  0  0  0  0
   -6.3463    0.7183    4.7941 H   0  0  0  0  0  0  0  0  0  0  0  0
   -6.3656    2.2058    3.7907 H   0  0  0  0  0  0  0  0  0  0  0  0
   -6.2510    2.3186    5.5557 H   0  0  0  0  0  0  0  0  0  0  0  0
    2.9344    2.9501    2.5748 H   0  0  0  0  0  0  0  0  0  0  0  0
    2.0481    0.8525   -1.9308 H   0  0  0  0  0  0  0  0  0  0  0  0
    3.5521    0.2344   -3.5625 H   0  0  0  0  0  0  0  0  0  0  0  0
    5.8667   -0.3432   -4.1625 H   0  0  0  0  0  0  0  0  0  0  0  0
    7.5572   -0.7314   -2.3960 H   0  0  0  0  0  0  0  0  0  0  0  0
    4.5839    0.0112    0.6152 H   0  0  0  0  0  0  0  0  0  0  0  0
    8.6657   -1.0127    1.8727 H   0  0  0  0  0  0  0  0  0  0  0  0
  1  2  1  0
  2  3  1  0
  3  4  1  0
  4  5  1  0
  5  6  1  0
  6  7  2  0
  7  8  1  0
  8  9  2  0
  9 10  1  0
 10 11  2  0
 11 12  1  0
 12 13  1  0
 13 14  1  0
 14 15  1  0
 15 16  1  0
  9 17  1  0
 17 18  2  0
 18 19  1  0
 19 20  2  0
 20 21  1  0
 21 22  1  0
 22 23  2  0
 23 24  1  0
 24 25  2  0
 25 26  1  0
 26 27  2  0
 26 28  1  0
 28 29  3  0
 11  6  1  0
 20  8  1  0
 27 22  1  0
  1 30  1  0
  1 31  1  0
  1 32  1  0
  3 33  1  0
  3 34  1  0
  4 35  1  0
  4 36  1  0
  7 37  1  0
 10 38  1  0
 13 39  1  0
 13 40  1  0
 14 41  1  0
 14 42  1  0
 16 43  1  0
 16 44  1  0
 16 45  1  0
 18 46  1  0
 21 47  1  0
 23 48  1  0
 24 49  1  0
 25 50  1  0
 27 51  1  0
 29 52  1  0
M  END
>  <energy_abs>  (93) 
60.77396495732584

>  <SMILES>  (93) 
COCCOc1cc2c(cc1OCCOC)ncnc2Nc3cccc(c3)C#C

>  <cluster_no>  (93) 
93

>  <fda_drugs_id>  (93) 
AAKJLRGGTJKAMG-UHFFFAOYSA-N

>  <initial_conformation_id>  (93) 
207

>  <minimize_method>  (93) 
MMFF

$$$$

     RDKit          3D

 52 54  0  0  0  0  0  0  0  0999 V2000
   -4.2588   -0.3080   -4.3690 C   0  0  0  0  0  0  0  0  0  0  0  0
   -4.5996   -1.3373   -3.4502 O   0  0  0  0  0  0  0  0  0  0  0  0
   -3.4949   -1.7744   -2.6571 C   0  0  0  0  0  0  0  0  0  0  0  0
   -3.1920   -0.8248   -1.4974 C   0  0  0  0  0  0  0  0  0  0  0  0
   -2.0928   -1.3624   -0.7500 O   0  0  0  0  0  0  0  0  0  0  0  0
   -1.4005   -0.3960   -0.0662 C   0  0  0  0  0  0  0  0  0  0  0  0
   -0.0480   -0.2773   -0.3864 C   0  0  0  0  0  0  0  0  0  0  0  0
    0.7699    0.6775    0.2633 C   0  0  0  0  0  0  0  0  0  0  0  0
    0.2108    1.4818    1.2654 C   0  0  0  0  0  0  0  0  0  0  0  0
   -1.1335    1.3245    1.5907 C   0  0  0  0  0  0  0  0  0  0  0  0
   -1.9508    0.3841    0.9537 C   0  0  0  0  0  0  0  0  0  0  0  0
   -3.2718    0.1882    1.2474 O   0  0  0  0  0  0  0  0  0  0  0  0
   -3.7281    0.5295    2.5574 C   0  0  0  0  0  0  0  0  0  0  0  0
   -4.4719    1.8652    2.5377 C   0  0  0  0  0  0  0  0  0  0  0  0
   -4.8615    2.2929    3.8428 O   0  0  0  0  0  0  0  0  0  0  0  0
   -5.9976    1.6004    4.3446 C   0  0  0  0  0  0  0  0  0  0  0  0
    0.9173    2.3982    1.9306 N   0  0  0  0  0  0  0  0  0  0  0  0
    2.2085    2.5164    1.6055 C   0  0  0  0  0  0  0  0  0  0  0  0
    2.8518    1.8128    0.6695 N   0  0  0  0  0  0  0  0  0  0  0  0
    2.1369    0.8980   -0.0078 C   0  0  0  0  0  0  0  0  0  0  0  0
    2.7643    0.1380   -1.0344 N   0  0  0  0  0  0  0  0  0  0  0  0
    4.1427   -0.0002   -1.3186 C   0  0  0  0  0  0  0  0  0  0  0  0
    4.5283   -0.4337   -2.5973 C   0  0  0  0  0  0  0  0  0  0  0  0
    5.8725   -0.6488   -2.9143 C   0  0  0  0  0  0  0  0  0  0  0  0
    6.8555   -0.4566   -1.9471 C   0  0  0  0  0  0  0  0  0  0  0  0
    6.4900   -0.0647   -0.6614 C   0  0  0  0  0  0  0  0  0  0  0  0
    5.1417    0.1441   -0.3485 C   0  0  0  0  0  0  0  0  0  0  0  0
    7.4941    0.1164    0.3417 C   0  0  0  0  0  0  0  0  0  0  0  0
    8.3365    0.2707    1.1845 C   0  0  0  0  0  0  0  0  0  0  0  0
   -3.4384   -0.6283   -5.0197 H   0  0  0  0  0  0  0  0  0  0  0  0
   -3.9898    0.6116   -3.8424 H   0  0  0  0  0  0  0  0  0  0  0  0
   -5.1359   -0.0990   -4.9913 H   0  0  0  0  0  0  0  0  0  0  0  0
   -3.7622   -2.7568   -2.2502 H   0  0  0  0  0  0  0  0  0  0  0  0
   -2.6082   -1.9400   -3.2797 H   0  0  0  0  0  0  0  0  0  0  0  0
   -2.9559    0.1755   -1.8827 H   0  0  0  0  0  0  0  0  0  0  0  0
   -4.0829   -0.7469   -0.8621 H   0  0  0  0  0  0  0  0  0  0  0  0
    0.3652   -0.9375   -1.1450 H   0  0  0  0  0  0  0  0  0  0  0  0
   -1.5301    1.9776    2.3622 H   0  0  0  0  0  0  0  0  0  0  0  0
   -4.4255   -0.2641    2.8533 H   0  0  0  0  0  0  0  0  0  0  0  0
   -2.9355    0.5049    3.3168 H   0  0  0  0  0  0  0  0  0  0  0  0
   -3.8183    2.6440    2.1284 H   0  0  0  0  0  0  0  0  0  0  0  0
   -5.3396    1.8238    1.8674 H   0  0  0  0  0  0  0  0  0  0  0  0
   -6.8448    1.6950    3.6593 H   0  0  0  0  0  0  0  0  0  0  0  0
   -6.2751    2.0502    5.3015 H   0  0  0  0  0  0  0  0  0  0  0  0
   -5.7663    0.5462    4.5166 H   0  0  0  0  0  0  0  0  0  0  0  0
    2.7866    3.2557    2.1492 H   0  0  0  0  0  0  0  0  0  0  0  0
    2.2177    0.2203   -1.8867 H   0  0  0  0  0  0  0  0  0  0  0  0
    3.7802   -0.6072   -3.3670 H   0  0  0  0  0  0  0  0  0  0  0  0
    6.1502   -0.9722   -3.9137 H   0  0  0  0  0  0  0  0  0  0  0  0
    7.9001   -0.6241   -2.1964 H   0  0  0  0  0  0  0  0  0  0  0  0
    4.8787    0.4186    0.6689 H   0  0  0  0  0  0  0  0  0  0  0  0
    9.0819    0.4139    1.9322 H   0  0  0  0  0  0  0  0  0  0  0  0
  1  2  1  0
  2  3  1  0
  3  4  1  0
  4  5  1  0
  5  6  1  0
  6  7  2  0
  7  8  1  0
  8  9  2  0
  9 10  1  0
 10 11  2  0
 11 12  1  0
 12 13  1  0
 13 14  1  0
 14 15  1  0
 15 16  1  0
  9 17  1  0
 17 18  2  0
 18 19  1  0
 19 20  2  0
 20 21  1  0
 21 22  1  0
 22 23  2  0
 23 24  1  0
 24 25  2  0
 25 26  1  0
 26 27  2  0
 26 28  1  0
 28 29  3  0
 11  6  1  0
 20  8  1  0
 27 22  1  0
  1 30  1  0
  1 31  1  0
  1 32  1  0
  3 33  1  0
  3 34  1  0
  4 35  1  0
  4 36  1  0
  7 37  1  0
 10 38  1  0
 13 39  1  0
 13 40  1  0
 14 41  1  0
 14 42  1  0
 16 43  1  0
 16 44  1  0
 16 45  1  0
 18 46  1  0
 21 47  1  0
 23 48  1  0
 24 49  1  0
 25 50  1  0
 27 51  1  0
 29 52  1  0
M  END
>  <energy_abs>  (94) 
60.73706764178862

>  <SMILES>  (94) 
COCCOc1cc2c(cc1OCCOC)ncnc2Nc3cccc(c3)C#C

>  <cluster_no>  (94) 
94

>  <fda_drugs_id>  (94) 
AAKJLRGGTJKAMG-UHFFFAOYSA-N

>  <initial_conformation_id>  (94) 
206

>  <minimize_method>  (94) 
MMFF

$$$$

     RDKit          3D

 52 54  0  0  0  0  0  0  0  0999 V2000
   -4.9266   -2.3406   -3.7155 C   0  0  0  0  0  0  0  0  0  0  0  0
   -3.7025   -1.9373   -3.1177 O   0  0  0  0  0  0  0  0  0  0  0  0
   -3.8047   -1.8971   -1.6871 C   0  0  0  0  0  0  0  0  0  0  0  0
   -2.4777   -1.4325   -1.0904 C   0  0  0  0  0  0  0  0  0  0  0  0
   -2.3253   -0.0222   -1.3298 O   0  0  0  0  0  0  0  0  0  0  0  0
   -1.4643    0.5205   -0.4126 C   0  0  0  0  0  0  0  0  0  0  0  0
   -0.0995    0.5071   -0.6814 C   0  0  0  0  0  0  0  0  0  0  0  0
    0.8112    1.0917    0.2302 C   0  0  0  0  0  0  0  0  0  0  0  0
    0.3218    1.6780    1.4094 C   0  0  0  0  0  0  0  0  0  0  0  0
   -1.0502    1.6923    1.6427 C   0  0  0  0  0  0  0  0  0  0  0  0
   -1.9578    1.1397    0.7354 C   0  0  0  0  0  0  0  0  0  0  0  0
   -3.3113    1.0921    0.9246 O   0  0  0  0  0  0  0  0  0  0  0  0
   -3.9172    2.1879    1.6219 C   0  0  0  0  0  0  0  0  0  0  0  0
   -4.3128    1.7677    3.0378 C   0  0  0  0  0  0  0  0  0  0  0  0
   -5.4075    0.8486    2.9754 O   0  0  0  0  0  0  0  0  0  0  0  0
   -5.7938    0.4012    4.2674 C   0  0  0  0  0  0  0  0  0  0  0  0
    1.1216    2.2256    2.3289 N   0  0  0  0  0  0  0  0  0  0  0  0
    2.4350    2.1913    2.0760 C   0  0  0  0  0  0  0  0  0  0  0  0
    3.0181    1.6715    0.9905 N   0  0  0  0  0  0  0  0  0  0  0  0
    2.2103    1.1283    0.0641 C   0  0  0  0  0  0  0  0  0  0  0  0
    2.7750    0.5869   -1.1233 N   0  0  0  0  0  0  0  0  0  0  0  0
    4.1323    0.2968   -1.3944 C   0  0  0  0  0  0  0  0  0  0  0  0
    4.5718    0.2819   -2.7285 C   0  0  0  0  0  0  0  0  0  0  0  0
    5.8898   -0.0543   -3.0528 C   0  0  0  0  0  0  0  0  0  0  0  0
    6.7850   -0.4059   -2.0451 C   0  0  0  0  0  0  0  0  0  0  0  0
    6.3575   -0.4346   -0.7170 C   0  0  0  0  0  0  0  0  0  0  0  0
    5.0360   -0.0982   -0.3990 C   0  0  0  0  0  0  0  0  0  0  0  0
    7.2695   -0.8120    0.3218 C   0  0  0  0  0  0  0  0  0  0  0  0
    8.0351   -1.1200    1.1978 C   0  0  0  0  0  0  0  0  0  0  0  0
   -5.7404   -1.6701   -3.4216 H   0  0  0  0  0  0  0  0  0  0  0  0
   -4.8149   -2.2983   -4.8039 H   0  0  0  0  0  0  0  0  0  0  0  0
   -5.1650   -3.3668   -3.4281 H   0  0  0  0  0  0  0  0  0  0  0  0
   -4.0371   -2.9079   -1.3233 H   0  0  0  0  0  0  0  0  0  0  0  0
   -4.6109   -1.2054   -1.4006 H   0  0  0  0  0  0  0  0  0  0  0  0
   -2.4793   -1.6509   -0.0201 H   0  0  0  0  0  0  0  0  0  0  0  0
   -1.6440   -1.9563   -1.5694 H   0  0  0  0  0  0  0  0  0  0  0  0
    0.2468    0.0270   -1.5930 H   0  0  0  0  0  0  0  0  0  0  0  0
   -1.3929    2.1360    2.5728 H   0  0  0  0  0  0  0  0  0  0  0  0
   -4.8193    2.4484    1.0558 H   0  0  0  0  0  0  0  0  0  0  0  0
   -3.2796    3.0796    1.6315 H   0  0  0  0  0  0  0  0  0  0  0  0
   -4.6266    2.6502    3.6069 H   0  0  0  0  0  0  0  0  0  0  0  0
   -3.4716    1.2841    3.5444 H   0  0  0  0  0  0  0  0  0  0  0  0
   -6.1797    1.2386    4.8585 H   0  0  0  0  0  0  0  0  0  0  0  0
   -6.5874   -0.3437    4.1553 H   0  0  0  0  0  0  0  0  0  0  0  0
   -4.9467   -0.0638    4.7833 H   0  0  0  0  0  0  0  0  0  0  0  0
    3.0899    2.6301    2.8216 H   0  0  0  0  0  0  0  0  0  0  0  0
    2.3219    1.0195   -1.9218 H   0  0  0  0  0  0  0  0  0  0  0  0
    3.8896    0.5392   -3.5347 H   0  0  0  0  0  0  0  0  0  0  0  0
    6.2151   -0.0445   -4.0902 H   0  0  0  0  0  0  0  0  0  0  0  0
    7.8097   -0.6657   -2.2996 H   0  0  0  0  0  0  0  0  0  0  0  0
    4.7146   -0.1523    0.6380 H   0  0  0  0  0  0  0  0  0  0  0  0
    8.7137   -1.3899    1.9768 H   0  0  0  0  0  0  0  0  0  0  0  0
  1  2  1  0
  2  3  1  0
  3  4  1  0
  4  5  1  0
  5  6  1  0
  6  7  2  0
  7  8  1  0
  8  9  2  0
  9 10  1  0
 10 11  2  0
 11 12  1  0
 12 13  1  0
 13 14  1  0
 14 15  1  0
 15 16  1  0
  9 17  1  0
 17 18  2  0
 18 19  1  0
 19 20  2  0
 20 21  1  0
 21 22  1  0
 22 23  2  0
 23 24  1  0
 24 25  2  0
 25 26  1  0
 26 27  2  0
 26 28  1  0
 28 29  3  0
 11  6  1  0
 20  8  1  0
 27 22  1  0
  1 30  1  0
  1 31  1  0
  1 32  1  0
  3 33  1  0
  3 34  1  0
  4 35  1  0
  4 36  1  0
  7 37  1  0
 10 38  1  0
 13 39  1  0
 13 40  1  0
 14 41  1  0
 14 42  1  0
 16 43  1  0
 16 44  1  0
 16 45  1  0
 18 46  1  0
 21 47  1  0
 23 48  1  0
 24 49  1  0
 25 50  1  0
 27 51  1  0
 29 52  1  0
M  END
>  <energy_abs>  (95) 
60.6500205340568

>  <SMILES>  (95) 
COCCOc1cc2c(cc1OCCOC)ncnc2Nc3cccc(c3)C#C

>  <cluster_no>  (95) 
95

>  <fda_drugs_id>  (95) 
AAKJLRGGTJKAMG-UHFFFAOYSA-N

>  <initial_conformation_id>  (95) 
205

>  <minimize_method>  (95) 
MMFF

$$$$

     RDKit          3D

 52 54  0  0  0  0  0  0  0  0999 V2000
   -4.8409   -2.6575   -1.7002 C   0  0  0  0  0  0  0  0  0  0  0  0
   -4.3833   -1.4216   -2.2328 O   0  0  0  0  0  0  0  0  0  0  0  0
   -3.0062   -1.4459   -2.6208 C   0  0  0  0  0  0  0  0  0  0  0  0
   -2.0469   -1.2869   -1.4375 C   0  0  0  0  0  0  0  0  0  0  0  0
   -2.1961    0.0377   -0.8929 O   0  0  0  0  0  0  0  0  0  0  0  0
   -1.4204    0.2218    0.2191 C   0  0  0  0  0  0  0  0  0  0  0  0
   -0.0319    0.2861    0.0528 C   0  0  0  0  0  0  0  0  0  0  0  0
    0.8349    0.4959    1.1536 C   0  0  0  0  0  0  0  0  0  0  0  0
    0.2873    0.6438    2.4309 C   0  0  0  0  0  0  0  0  0  0  0  0
   -1.0951    0.6164    2.5663 C   0  0  0  0  0  0  0  0  0  0  0  0
   -1.9687    0.4287    1.4830 C   0  0  0  0  0  0  0  0  0  0  0  0
   -3.2796    0.4713    1.8618 O   0  0  0  0  0  0  0  0  0  0  0  0
   -4.3292    0.4689    0.8930 C   0  0  0  0  0  0  0  0  0  0  0  0
   -4.4888    1.8130    0.1815 C   0  0  0  0  0  0  0  0  0  0  0  0
   -5.0202    2.7773    1.1007 O   0  0  0  0  0  0  0  0  0  0  0  0
   -5.1389    4.0593    0.5007 C   0  0  0  0  0  0  0  0  0  0  0  0
    1.0399    0.8183    3.5211 N   0  0  0  0  0  0  0  0  0  0  0  0
    2.3642    0.8422    3.3418 C   0  0  0  0  0  0  0  0  0  0  0  0
    3.0039    0.7214    2.1763 N   0  0  0  0  0  0  0  0  0  0  0  0
    2.2418    0.5619    1.0801 C   0  0  0  0  0  0  0  0  0  0  0  0
    2.8624    0.4742   -0.1971 N   0  0  0  0  0  0  0  0  0  0  0  0
    4.2250    0.2476   -0.4993 C   0  0  0  0  0  0  0  0  0  0  0  0
    5.0715   -0.4966    0.3312 C   0  0  0  0  0  0  0  0  0  0  0  0
    6.3944   -0.7624   -0.0352 C   0  0  0  0  0  0  0  0  0  0  0  0
    6.8845   -0.3088   -1.2575 C   0  0  0  0  0  0  0  0  0  0  0  0
    6.0474    0.4007   -2.1167 C   0  0  0  0  0  0  0  0  0  0  0  0
    4.7241    0.6649   -1.7439 C   0  0  0  0  0  0  0  0  0  0  0  0
    6.5368    0.8520   -3.3837 C   0  0  0  0  0  0  0  0  0  0  0  0
    6.9467    1.2308   -4.4469 C   0  0  0  0  0  0  0  0  0  0  0  0
   -5.9164   -2.5733   -1.5247 H   0  0  0  0  0  0  0  0  0  0  0  0
   -4.3548   -2.8761   -0.7463 H   0  0  0  0  0  0  0  0  0  0  0  0
   -4.6690   -3.4734   -2.4082 H   0  0  0  0  0  0  0  0  0  0  0  0
   -2.7911   -2.3677   -3.1731 H   0  0  0  0  0  0  0  0  0  0  0  0
   -2.8670   -0.6049   -3.3082 H   0  0  0  0  0  0  0  0  0  0  0  0
   -2.2577   -2.0292   -0.6592 H   0  0  0  0  0  0  0  0  0  0  0  0
   -1.0247   -1.4285   -1.8077 H   0  0  0  0  0  0  0  0  0  0  0  0
    0.3844    0.1681   -0.9444 H   0  0  0  0  0  0  0  0  0  0  0  0
   -1.5190    0.7588    3.5599 H   0  0  0  0  0  0  0  0  0  0  0  0
   -5.2474    0.2686    1.4581 H   0  0  0  0  0  0  0  0  0  0  0  0
   -4.2215   -0.3694    0.2034 H   0  0  0  0  0  0  0  0  0  0  0  0
   -5.1935    1.7010   -0.6499 H   0  0  0  0  0  0  0  0  0  0  0  0
   -3.5328    2.1825   -0.2022 H   0  0  0  0  0  0  0  0  0  0  0  0
   -5.5581    4.7478    1.2391 H   0  0  0  0  0  0  0  0  0  0  0  0
   -4.1562    4.4318    0.1958 H   0  0  0  0  0  0  0  0  0  0  0  0
   -5.8107    4.0198   -0.3622 H   0  0  0  0  0  0  0  0  0  0  0  0
    2.9772    0.9765    4.2263 H   0  0  0  0  0  0  0  0  0  0  0  0
    2.4685    1.1945   -0.7945 H   0  0  0  0  0  0  0  0  0  0  0  0
    4.7086   -0.8866    1.2788 H   0  0  0  0  0  0  0  0  0  0  0  0
    7.0361   -1.3302    0.6338 H   0  0  0  0  0  0  0  0  0  0  0  0
    7.9138   -0.5202   -1.5366 H   0  0  0  0  0  0  0  0  0  0  0  0
    4.0817    1.2063   -2.4337 H   0  0  0  0  0  0  0  0  0  0  0  0
    7.3070    1.5634   -5.3918 H   0  0  0  0  0  0  0  0  0  0  0  0
  1  2  1  0
  2  3  1  0
  3  4  1  0
  4  5  1  0
  5  6  1  0
  6  7  2  0
  7  8  1  0
  8  9  2  0
  9 10  1  0
 10 11  2  0
 11 12  1  0
 12 13  1  0
 13 14  1  0
 14 15  1  0
 15 16  1  0
  9 17  1  0
 17 18  2  0
 18 19  1  0
 19 20  2  0
 20 21  1  0
 21 22  1  0
 22 23  2  0
 23 24  1  0
 24 25  2  0
 25 26  1  0
 26 27  2  0
 26 28  1  0
 28 29  3  0
 11  6  1  0
 20  8  1  0
 27 22  1  0
  1 30  1  0
  1 31  1  0
  1 32  1  0
  3 33  1  0
  3 34  1  0
  4 35  1  0
  4 36  1  0
  7 37  1  0
 10 38  1  0
 13 39  1  0
 13 40  1  0
 14 41  1  0
 14 42  1  0
 16 43  1  0
 16 44  1  0
 16 45  1  0
 18 46  1  0
 21 47  1  0
 23 48  1  0
 24 49  1  0
 25 50  1  0
 27 51  1  0
 29 52  1  0
M  END
>  <energy_abs>  (96) 
61.43602673269231

>  <SMILES>  (96) 
COCCOc1cc2c(cc1OCCOC)ncnc2Nc3cccc(c3)C#C

>  <cluster_no>  (96) 
96

>  <fda_drugs_id>  (96) 
AAKJLRGGTJKAMG-UHFFFAOYSA-N

>  <initial_conformation_id>  (96) 
204

>  <minimize_method>  (96) 
MMFF

$$$$

     RDKit          3D

 52 54  0  0  0  0  0  0  0  0999 V2000
   -3.5113   -4.0212   -2.6618 C   0  0  0  0  0  0  0  0  0  0  0  0
   -2.3845   -3.1558   -2.6519 O   0  0  0  0  0  0  0  0  0  0  0  0
   -2.6847   -1.8563   -2.1364 C   0  0  0  0  0  0  0  0  0  0  0  0
   -2.7313   -1.8362   -0.6089 C   0  0  0  0  0  0  0  0  0  0  0  0
   -2.9066   -0.4942   -0.1470 O   0  0  0  0  0  0  0  0  0  0  0  0
   -1.8737   -0.0123    0.6117 C   0  0  0  0  0  0  0  0  0  0  0  0
   -0.5417   -0.0893    0.2088 C   0  0  0  0  0  0  0  0  0  0  0  0
    0.5008    0.4098    1.0377 C   0  0  0  0  0  0  0  0  0  0  0  0
    0.1746    1.0158    2.2627 C   0  0  0  0  0  0  0  0  0  0  0  0
   -1.1606    1.1238    2.6256 C   0  0  0  0  0  0  0  0  0  0  0  0
   -2.1828    0.6452    1.8004 C   0  0  0  0  0  0  0  0  0  0  0  0
   -3.4927    0.7220    2.1946 O   0  0  0  0  0  0  0  0  0  0  0  0
   -3.9874    2.0696    2.2433 C   0  0  0  0  0  0  0  0  0  0  0  0
   -4.3898    2.5880    0.8554 C   0  0  0  0  0  0  0  0  0  0  0  0
   -3.2770    3.0170    0.0625 O   0  0  0  0  0  0  0  0  0  0  0  0
   -2.7772    4.2938    0.4297 C   0  0  0  0  0  0  0  0  0  0  0  0
    1.0981    1.4970    3.1046 N   0  0  0  0  0  0  0  0  0  0  0  0
    2.3722    1.3853    2.7185 C   0  0  0  0  0  0  0  0  0  0  0  0
    2.8070    0.8393    1.5761 N   0  0  0  0  0  0  0  0  0  0  0  0
    1.8801    0.3489    0.7378 C   0  0  0  0  0  0  0  0  0  0  0  0
    2.2851   -0.2424   -0.4887 N   0  0  0  0  0  0  0  0  0  0  0  0
    3.5483   -0.2460   -1.1258 C   0  0  0  0  0  0  0  0  0  0  0  0
    3.7605   -1.1597   -2.1738 C   0  0  0  0  0  0  0  0  0  0  0  0
    4.9603   -1.1813   -2.8895 C   0  0  0  0  0  0  0  0  0  0  0  0
    5.9678   -0.2698   -2.5815 C   0  0  0  0  0  0  0  0  0  0  0  0
    5.7627    0.6687   -1.5719 C   0  0  0  0  0  0  0  0  0  0  0  0
    4.5525    0.6904   -0.8661 C   0  0  0  0  0  0  0  0  0  0  0  0
    6.7917    1.6064   -1.2547 C   0  0  0  0  0  0  0  0  0  0  0  0
    7.6583    2.3981   -0.9822 C   0  0  0  0  0  0  0  0  0  0  0  0
   -4.3239   -3.5920   -3.2596 H   0  0  0  0  0  0  0  0  0  0  0  0
   -3.2116   -4.9699   -3.1163 H   0  0  0  0  0  0  0  0  0  0  0  0
   -3.8573   -4.2220   -1.6451 H   0  0  0  0  0  0  0  0  0  0  0  0
   -1.8945   -1.1824   -2.4838 H   0  0  0  0  0  0  0  0  0  0  0  0
   -3.6166   -1.4712   -2.5660 H   0  0  0  0  0  0  0  0  0  0  0  0
   -3.5993   -2.4073   -0.2599 H   0  0  0  0  0  0  0  0  0  0  0  0
   -1.8571   -2.3424   -0.1812 H   0  0  0  0  0  0  0  0  0  0  0  0
   -0.3043   -0.5260   -0.7562 H   0  0  0  0  0  0  0  0  0  0  0  0
   -1.4045    1.5778    3.5861 H   0  0  0  0  0  0  0  0  0  0  0  0
   -3.2884    2.7378    2.7561 H   0  0  0  0  0  0  0  0  0  0  0  0
   -4.8909    2.0236    2.8627 H   0  0  0  0  0  0  0  0  0  0  0  0
   -4.8815    1.7856    0.2944 H   0  0  0  0  0  0  0  0  0  0  0  0
   -5.1047    3.4162    0.9488 H   0  0  0  0  0  0  0  0  0  0  0  0
   -1.9770    4.5600   -0.2665 H   0  0  0  0  0  0  0  0  0  0  0  0
   -2.3599    4.2784    1.4402 H   0  0  0  0  0  0  0  0  0  0  0  0
   -3.5640    5.0502    0.3573 H   0  0  0  0  0  0  0  0  0  0  0  0
    3.1260    1.7752    3.3978 H   0  0  0  0  0  0  0  0  0  0  0  0
    1.8266   -1.1415   -0.5944 H   0  0  0  0  0  0  0  0  0  0  0  0
    2.9837   -1.8666   -2.4495 H   0  0  0  0  0  0  0  0  0  0  0  0
    5.1055   -1.9036   -3.6886 H   0  0  0  0  0  0  0  0  0  0  0  0
    6.9027   -0.2900   -3.1352 H   0  0  0  0  0  0  0  0  0  0  0  0
    4.4060    1.4517   -0.1082 H   0  0  0  0  0  0  0  0  0  0  0  0
    8.4221    3.0944   -0.7337 H   0  0  0  0  0  0  0  0  0  0  0  0
  1  2  1  0
  2  3  1  0
  3  4  1  0
  4  5  1  0
  5  6  1  0
  6  7  2  0
  7  8  1  0
  8  9  2  0
  9 10  1  0
 10 11  2  0
 11 12  1  0
 12 13  1  0
 13 14  1  0
 14 15  1  0
 15 16  1  0
  9 17  1  0
 17 18  2  0
 18 19  1  0
 19 20  2  0
 20 21  1  0
 21 22  1  0
 22 23  2  0
 23 24  1  0
 24 25  2  0
 25 26  1  0
 26 27  2  0
 26 28  1  0
 28 29  3  0
 11  6  1  0
 20  8  1  0
 27 22  1  0
  1 30  1  0
  1 31  1  0
  1 32  1  0
  3 33  1  0
  3 34  1  0
  4 35  1  0
  4 36  1  0
  7 37  1  0
 10 38  1  0
 13 39  1  0
 13 40  1  0
 14 41  1  0
 14 42  1  0
 16 43  1  0
 16 44  1  0
 16 45  1  0
 18 46  1  0
 21 47  1  0
 23 48  1  0
 24 49  1  0
 25 50  1  0
 27 51  1  0
 29 52  1  0
M  END
>  <energy_abs>  (97) 
64.31455466649508

>  <SMILES>  (97) 
COCCOc1cc2c(cc1OCCOC)ncnc2Nc3cccc(c3)C#C

>  <cluster_no>  (97) 
97

>  <fda_drugs_id>  (97) 
AAKJLRGGTJKAMG-UHFFFAOYSA-N

>  <initial_conformation_id>  (97) 
203

>  <minimize_method>  (97) 
MMFF

$$$$

     RDKit          3D

 52 54  0  0  0  0  0  0  0  0999 V2000
   -3.3384   -3.3113   -0.9271 C   0  0  0  0  0  0  0  0  0  0  0  0
   -2.4488   -3.4825   -2.0235 O   0  0  0  0  0  0  0  0  0  0  0  0
   -1.3942   -2.5150   -2.0609 C   0  0  0  0  0  0  0  0  0  0  0  0
   -1.8767   -1.0993   -2.3928 C   0  0  0  0  0  0  0  0  0  0  0  0
   -2.4163   -0.4447   -1.2411 O   0  0  0  0  0  0  0  0  0  0  0  0
   -1.5980    0.3021   -0.4358 C   0  0  0  0  0  0  0  0  0  0  0  0
   -0.2038    0.2917   -0.4850 C   0  0  0  0  0  0  0  0  0  0  0  0
    0.5663    1.0903    0.4000 C   0  0  0  0  0  0  0  0  0  0  0  0
   -0.0855    1.9114    1.3268 C   0  0  0  0  0  0  0  0  0  0  0  0
   -1.4738    1.9039    1.3739 C   0  0  0  0  0  0  0  0  0  0  0  0
   -2.2416    1.1132    0.5127 C   0  0  0  0  0  0  0  0  0  0  0  0
   -3.6119    1.0498    0.5206 O   0  0  0  0  0  0  0  0  0  0  0  0
   -4.3508    1.9739    1.3168 C   0  0  0  0  0  0  0  0  0  0  0  0
   -4.6160    1.4112    2.7105 C   0  0  0  0  0  0  0  0  0  0  0  0
   -5.3426    2.3719    3.4759 O   0  0  0  0  0  0  0  0  0  0  0  0
   -5.6291    1.8905    4.7826 C   0  0  0  0  0  0  0  0  0  0  0  0
    0.5720    2.7032    2.1773 N   0  0  0  0  0  0  0  0  0  0  0  0
    1.9065    2.6928    2.1016 C   0  0  0  0  0  0  0  0  0  0  0  0
    2.6415    1.9525    1.2695 N   0  0  0  0  0  0  0  0  0  0  0  0
    1.9759    1.1428    0.4273 C   0  0  0  0  0  0  0  0  0  0  0  0
    2.7085    0.2896   -0.4439 N   0  0  0  0  0  0  0  0  0  0  0  0
    4.0769    0.3626   -0.7942 C   0  0  0  0  0  0  0  0  0  0  0  0
    4.7813    1.5718   -0.8427 C   0  0  0  0  0  0  0  0  0  0  0  0
    6.1136    1.6159   -1.2644 C   0  0  0  0  0  0  0  0  0  0  0  0
    6.7561    0.4488   -1.6713 C   0  0  0  0  0  0  0  0  0  0  0  0
    6.0612   -0.7594   -1.6674 C   0  0  0  0  0  0  0  0  0  0  0  0
    4.7277   -0.7979   -1.2438 C   0  0  0  0  0  0  0  0  0  0  0  0
    6.7079   -1.9592   -2.1033 C   0  0  0  0  0  0  0  0  0  0  0  0
    7.2507   -2.9660   -2.4690 C   0  0  0  0  0  0  0  0  0  0  0  0
   -2.7897   -3.2030    0.0133 H   0  0  0  0  0  0  0  0  0  0  0  0
   -3.9681   -4.2029   -0.8599 H   0  0  0  0  0  0  0  0  0  0  0  0
   -3.9922   -2.4513   -1.0926 H   0  0  0  0  0  0  0  0  0  0  0  0
   -0.8401   -2.5545   -1.1169 H   0  0  0  0  0  0  0  0  0  0  0  0
   -0.7184   -2.8445   -2.8569 H   0  0  0  0  0  0  0  0  0  0  0  0
   -2.6915   -1.1583   -3.1234 H   0  0  0  0  0  0  0  0  0  0  0  0
   -1.0865   -0.4981   -2.8559 H   0  0  0  0  0  0  0  0  0  0  0  0
    0.3185   -0.3236   -1.2090 H   0  0  0  0  0  0  0  0  0  0  0  0
   -1.9382    2.5415    2.1199 H   0  0  0  0  0  0  0  0  0  0  0  0
   -5.3159    2.1217    0.8165 H   0  0  0  0  0  0  0  0  0  0  0  0
   -3.9003    2.9733    1.3426 H   0  0  0  0  0  0  0  0  0  0  0  0
   -3.6742    1.1715    3.2165 H   0  0  0  0  0  0  0  0  0  0  0  0
   -5.1924    0.4817    2.6288 H   0  0  0  0  0  0  0  0  0  0  0  0
   -6.2462    0.9883    4.7316 H   0  0  0  0  0  0  0  0  0  0  0  0
   -4.7023    1.6837    5.3263 H   0  0  0  0  0  0  0  0  0  0  0  0
   -6.1844    2.6637    5.3202 H   0  0  0  0  0  0  0  0  0  0  0  0
    2.4428    3.3441    2.7832 H   0  0  0  0  0  0  0  0  0  0  0  0
    2.4280   -0.6692   -0.2648 H   0  0  0  0  0  0  0  0  0  0  0  0
    4.2982    2.5022   -0.5559 H   0  0  0  0  0  0  0  0  0  0  0  0
    6.6437    2.5645   -1.2807 H   0  0  0  0  0  0  0  0  0  0  0  0
    7.7916    0.4905   -1.9995 H   0  0  0  0  0  0  0  0  0  0  0  0
    4.1977   -1.7468   -1.2628 H   0  0  0  0  0  0  0  0  0  0  0  0
    7.7344   -3.8577   -2.7937 H   0  0  0  0  0  0  0  0  0  0  0  0
  1  2  1  0
  2  3  1  0
  3  4  1  0
  4  5  1  0
  5  6  1  0
  6  7  2  0
  7  8  1  0
  8  9  2  0
  9 10  1  0
 10 11  2  0
 11 12  1  0
 12 13  1  0
 13 14  1  0
 14 15  1  0
 15 16  1  0
  9 17  1  0
 17 18  2  0
 18 19  1  0
 19 20  2  0
 20 21  1  0
 21 22  1  0
 22 23  2  0
 23 24  1  0
 24 25  2  0
 25 26  1  0
 26 27  2  0
 26 28  1  0
 28 29  3  0
 11  6  1  0
 20  8  1  0
 27 22  1  0
  1 30  1  0
  1 31  1  0
  1 32  1  0
  3 33  1  0
  3 34  1  0
  4 35  1  0
  4 36  1  0
  7 37  1  0
 10 38  1  0
 13 39  1  0
 13 40  1  0
 14 41  1  0
 14 42  1  0
 16 43  1  0
 16 44  1  0
 16 45  1  0
 18 46  1  0
 21 47  1  0
 23 48  1  0
 24 49  1  0
 25 50  1  0
 27 51  1  0
 29 52  1  0
M  END
>  <energy_abs>  (98) 
61.31668268870762

>  <SMILES>  (98) 
COCCOc1cc2c(cc1OCCOC)ncnc2Nc3cccc(c3)C#C

>  <cluster_no>  (98) 
98

>  <fda_drugs_id>  (98) 
AAKJLRGGTJKAMG-UHFFFAOYSA-N

>  <initial_conformation_id>  (98) 
202

>  <minimize_method>  (98) 
MMFF

$$$$

     RDKit          3D

 52 54  0  0  0  0  0  0  0  0999 V2000
   -4.2686   -4.2055   -1.5497 C   0  0  0  0  0  0  0  0  0  0  0  0
   -4.6461   -2.9623   -0.9735 O   0  0  0  0  0  0  0  0  0  0  0  0
   -3.9212   -1.8549   -1.5108 C   0  0  0  0  0  0  0  0  0  0  0  0
   -2.5420   -1.7011   -0.8724 C   0  0  0  0  0  0  0  0  0  0  0  0
   -1.8905   -0.5539   -1.4341 O   0  0  0  0  0  0  0  0  0  0  0  0
   -1.2634    0.2034   -0.4799 C   0  0  0  0  0  0  0  0  0  0  0  0
    0.1268    0.2574   -0.5388 C   0  0  0  0  0  0  0  0  0  0  0  0
    0.8550    1.0370    0.3896 C   0  0  0  0  0  0  0  0  0  0  0  0
    0.1570    1.7798    1.3516 C   0  0  0  0  0  0  0  0  0  0  0  0
   -1.2347    1.7300    1.3728 C   0  0  0  0  0  0  0  0  0  0  0  0
   -1.9652    0.9641    0.4606 C   0  0  0  0  0  0  0  0  0  0  0  0
   -3.3295    0.8867    0.4026 O   0  0  0  0  0  0  0  0  0  0  0  0
   -4.1142    1.7600    1.2133 C   0  0  0  0  0  0  0  0  0  0  0  0
   -4.4360    1.1167    2.5624 C   0  0  0  0  0  0  0  0  0  0  0  0
   -5.1542    2.0008    3.4228 O   0  0  0  0  0  0  0  0  0  0  0  0
   -6.5435    2.0600    3.1271 C   0  0  0  0  0  0  0  0  0  0  0  0
    0.7739    2.5457    2.2539 N   0  0  0  0  0  0  0  0  0  0  0  0
    2.1089    2.5890    2.1962 C   0  0  0  0  0  0  0  0  0  0  0  0
    2.8825    1.9307    1.3303 N   0  0  0  0  0  0  0  0  0  0  0  0
    2.2605    1.1466    0.4321 C   0  0  0  0  0  0  0  0  0  0  0  0
    3.0344    0.3923   -0.4916 N   0  0  0  0  0  0  0  0  0  0  0  0
    4.4053    0.5260   -0.8093 C   0  0  0  0  0  0  0  0  0  0  0  0
    5.0853    1.7474   -0.7322 C   0  0  0  0  0  0  0  0  0  0  0  0
    6.4244    1.8556   -1.1197 C   0  0  0  0  0  0  0  0  0  0  0  0
    7.0993    0.7433   -1.6168 C   0  0  0  0  0  0  0  0  0  0  0  0
    6.4304   -0.4734   -1.7371 C   0  0  0  0  0  0  0  0  0  0  0  0
    5.0899   -0.5758   -1.3477 C   0  0  0  0  0  0  0  0  0  0  0  0
    7.1112   -1.6162   -2.2649 C   0  0  0  0  0  0  0  0  0  0  0  0
    7.6833   -2.5747   -2.7075 C   0  0  0  0  0  0  0  0  0  0  0  0
   -3.2258   -4.4418   -1.3226 H   0  0  0  0  0  0  0  0  0  0  0  0
   -4.4264   -4.1917   -2.6323 H   0  0  0  0  0  0  0  0  0  0  0  0
   -4.8995   -4.9871   -1.1180 H   0  0  0  0  0  0  0  0  0  0  0  0
   -4.5115   -0.9544   -1.3087 H   0  0  0  0  0  0  0  0  0  0  0  0
   -3.8480   -1.9278   -2.6029 H   0  0  0  0  0  0  0  0  0  0  0  0
   -2.6362   -1.6713    0.2215 H   0  0  0  0  0  0  0  0  0  0  0  0
   -1.9205   -2.5741   -1.1013 H   0  0  0  0  0  0  0  0  0  0  0  0
    0.6369   -0.3002   -1.3198 H   0  0  0  0  0  0  0  0  0  0  0  0
   -1.7298    2.3210    2.1377 H   0  0  0  0  0  0  0  0  0  0  0  0
   -3.6766    2.7597    1.3177 H   0  0  0  0  0  0  0  0  0  0  0  0
   -5.0496    1.9245    0.6666 H   0  0  0  0  0  0  0  0  0  0  0  0
   -4.9777    0.1719    2.4298 H   0  0  0  0  0  0  0  0  0  0  0  0
   -3.5054    0.8562    3.0776 H   0  0  0  0  0  0  0  0  0  0  0  0
   -6.9954    1.0659    3.1976 H   0  0  0  0  0  0  0  0  0  0  0  0
   -6.7142    2.4838    2.1341 H   0  0  0  0  0  0  0  0  0  0  0  0
   -7.0217    2.7106    3.8645 H   0  0  0  0  0  0  0  0  0  0  0  0
    2.6117    3.2170    2.9236 H   0  0  0  0  0  0  0  0  0  0  0  0
    2.7623   -0.5828   -0.4274 H   0  0  0  0  0  0  0  0  0  0  0  0
    4.5772    2.6387   -0.3734 H   0  0  0  0  0  0  0  0  0  0  0  0
    6.9340    2.8121   -1.0389 H   0  0  0  0  0  0  0  0  0  0  0  0
    8.1400    0.8347   -1.9174 H   0  0  0  0  0  0  0  0  0  0  0  0
    4.5802   -1.5289   -1.4638 H   0  0  0  0  0  0  0  0  0  0  0  0
    8.1930   -3.4234   -3.1004 H   0  0  0  0  0  0  0  0  0  0  0  0
  1  2  1  0
  2  3  1  0
  3  4  1  0
  4  5  1  0
  5  6  1  0
  6  7  2  0
  7  8  1  0
  8  9  2  0
  9 10  1  0
 10 11  2  0
 11 12  1  0
 12 13  1  0
 13 14  1  0
 14 15  1  0
 15 16  1  0
  9 17  1  0
 17 18  2  0
 18 19  1  0
 19 20  2  0
 20 21  1  0
 21 22  1  0
 22 23  2  0
 23 24  1  0
 24 25  2  0
 25 26  1  0
 26 27  2  0
 26 28  1  0
 28 29  3  0
 11  6  1  0
 20  8  1  0
 27 22  1  0
  1 30  1  0
  1 31  1  0
  1 32  1  0
  3 33  1  0
  3 34  1  0
  4 35  1  0
  4 36  1  0
  7 37  1  0
 10 38  1  0
 13 39  1  0
 13 40  1  0
 14 41  1  0
 14 42  1  0
 16 43  1  0
 16 44  1  0
 16 45  1  0
 18 46  1  0
 21 47  1  0
 23 48  1  0
 24 49  1  0
 25 50  1  0
 27 51  1  0
 29 52  1  0
M  END
>  <energy_abs>  (99) 
60.438239477066745

>  <SMILES>  (99) 
COCCOc1cc2c(cc1OCCOC)ncnc2Nc3cccc(c3)C#C

>  <cluster_no>  (99) 
99

>  <fda_drugs_id>  (99) 
AAKJLRGGTJKAMG-UHFFFAOYSA-N

>  <initial_conformation_id>  (99) 
201

>  <minimize_method>  (99) 
MMFF

$$$$

     RDKit          3D

 52 54  0  0  0  0  0  0  0  0999 V2000
   -5.0192   -3.3901   -2.2487 C   0  0  0  0  0  0  0  0  0  0  0  0
   -3.8464   -2.6349   -1.9772 O   0  0  0  0  0  0  0  0  0  0  0  0
   -3.0746   -3.2213   -0.9234 C   0  0  0  0  0  0  0  0  0  0  0  0
   -1.8689   -2.3318   -0.6198 C   0  0  0  0  0  0  0  0  0  0  0  0
   -2.3219   -1.1859    0.1045 O   0  0  0  0  0  0  0  0  0  0  0  0
   -1.3846   -0.3044    0.5667 C   0  0  0  0  0  0  0  0  0  0  0  0
   -0.0226   -0.3542    0.2704 C   0  0  0  0  0  0  0  0  0  0  0  0
    0.8902    0.5823    0.8337 C   0  0  0  0  0  0  0  0  0  0  0  0
    0.4138    1.5837    1.6904 C   0  0  0  0  0  0  0  0  0  0  0  0
   -0.9428    1.6301    1.9694 C   0  0  0  0  0  0  0  0  0  0  0  0
   -1.8379    0.7183    1.4051 C   0  0  0  0  0  0  0  0  0  0  0  0
   -3.1513    0.8532    1.7782 O   0  0  0  0  0  0  0  0  0  0  0  0
   -3.9889    1.2064    0.6625 C   0  0  0  0  0  0  0  0  0  0  0  0
   -5.1907    1.9873    1.1928 C   0  0  0  0  0  0  0  0  0  0  0  0
   -4.7707    3.2959    1.5938 O   0  0  0  0  0  0  0  0  0  0  0  0
   -5.8469    4.0468    2.1386 C   0  0  0  0  0  0  0  0  0  0  0  0
    1.2114    2.4970    2.2480 N   0  0  0  0  0  0  0  0  0  0  0  0
    2.5100    2.4307    1.9397 C   0  0  0  0  0  0  0  0  0  0  0  0
    3.0846    1.5316    1.1401 N   0  0  0  0  0  0  0  0  0  0  0  0
    2.2804    0.6025    0.5955 C   0  0  0  0  0  0  0  0  0  0  0  0
    2.8480   -0.4111   -0.2255 N   0  0  0  0  0  0  0  0  0  0  0  0
    4.1320   -0.4386   -0.8169 C   0  0  0  0  0  0  0  0  0  0  0  0
    4.6988   -1.6784   -1.1537 C   0  0  0  0  0  0  0  0  0  0  0  0
    5.9339   -1.7569   -1.8055 C   0  0  0  0  0  0  0  0  0  0  0  0
    6.6112   -0.5909   -2.1535 C   0  0  0  0  0  0  0  0  0  0  0  0
    6.0463    0.6509   -1.8617 C   0  0  0  0  0  0  0  0  0  0  0  0
    4.8096    0.7228   -1.2093 C   0  0  0  0  0  0  0  0  0  0  0  0
    6.7252    1.8519   -2.2422 C   0  0  0  0  0  0  0  0  0  0  0  0
    7.2907    2.8616   -2.5628 C   0  0  0  0  0  0  0  0  0  0  0  0
   -4.7594   -4.4134   -2.5360 H   0  0  0  0  0  0  0  0  0  0  0  0
   -5.6783   -3.3991   -1.3745 H   0  0  0  0  0  0  0  0  0  0  0  0
   -5.5480   -2.9172   -3.0808 H   0  0  0  0  0  0  0  0  0  0  0  0
   -2.7279   -4.2070   -1.2520 H   0  0  0  0  0  0  0  0  0  0  0  0
   -3.7017   -3.3290   -0.0308 H   0  0  0  0  0  0  0  0  0  0  0  0
   -1.1613   -2.8971   -0.0034 H   0  0  0  0  0  0  0  0  0  0  0  0
   -1.3994   -2.0136   -1.5574 H   0  0  0  0  0  0  0  0  0  0  0  0
    0.3618   -1.1044   -0.4149 H   0  0  0  0  0  0  0  0  0  0  0  0
   -1.3235    2.4036    2.6322 H   0  0  0  0  0  0  0  0  0  0  0  0
   -4.3444    0.2897    0.1865 H   0  0  0  0  0  0  0  0  0  0  0  0
   -3.4435    1.8189   -0.0664 H   0  0  0  0  0  0  0  0  0  0  0  0
   -5.6276    1.4696    2.0551 H   0  0  0  0  0  0  0  0  0  0  0  0
   -5.9438    2.0885    0.4053 H   0  0  0  0  0  0  0  0  0  0  0  0
   -6.6353    4.1861    1.3944 H   0  0  0  0  0  0  0  0  0  0  0  0
   -6.2507    3.5500    3.0239 H   0  0  0  0  0  0  0  0  0  0  0  0
   -5.4648    5.0269    2.4322 H   0  0  0  0  0  0  0  0  0  0  0  0
    3.1587    3.1749    2.3830 H   0  0  0  0  0  0  0  0  0  0  0  0
    2.6044   -1.3143    0.1673 H   0  0  0  0  0  0  0  0  0  0  0  0
    4.1830   -2.6034   -0.9091 H   0  0  0  0  0  0  0  0  0  0  0  0
    6.3625   -2.7259   -2.0468 H   0  0  0  0  0  0  0  0  0  0  0  0
    7.5703   -0.6555   -2.6632 H   0  0  0  0  0  0  0  0  0  0  0  0
    4.3725    1.6992   -1.0160 H   0  0  0  0  0  0  0  0  0  0  0  0
    7.7888    3.7592   -2.8465 H   0  0  0  0  0  0  0  0  0  0  0  0
  1  2  1  0
  2  3  1  0
  3  4  1  0
  4  5  1  0
  5  6  1  0
  6  7  2  0
  7  8  1  0
  8  9  2  0
  9 10  1  0
 10 11  2  0
 11 12  1  0
 12 13  1  0
 13 14  1  0
 14 15  1  0
 15 16  1  0
  9 17  1  0
 17 18  2  0
 18 19  1  0
 19 20  2  0
 20 21  1  0
 21 22  1  0
 22 23  2  0
 23 24  1  0
 24 25  2  0
 25 26  1  0
 26 27  2  0
 26 28  1  0
 28 29  3  0
 11  6  1  0
 20  8  1  0
 27 22  1  0
  1 30  1  0
  1 31  1  0
  1 32  1  0
  3 33  1  0
  3 34  1  0
  4 35  1  0
  4 36  1  0
  7 37  1  0
 10 38  1  0
 13 39  1  0
 13 40  1  0
 14 41  1  0
 14 42  1  0
 16 43  1  0
 16 44  1  0
 16 45  1  0
 18 46  1  0
 21 47  1  0
 23 48  1  0
 24 49  1  0
 25 50  1  0
 27 51  1  0
 29 52  1  0
M  END
>  <energy_abs>  (100) 
58.52165108945709

>  <SMILES>  (100) 
COCCOc1cc2c(cc1OCCOC)ncnc2Nc3cccc(c3)C#C

>  <cluster_no>  (100) 
100

>  <fda_drugs_id>  (100) 
AAKJLRGGTJKAMG-UHFFFAOYSA-N

>  <initial_conformation_id>  (100) 
200

>  <minimize_method>  (100) 
MMFF

$$$$

     RDKit          3D

 52 54  0  0  0  0  0  0  0  0999 V2000
   -1.5187   -2.9931   -3.5471 C   0  0  0  0  0  0  0  0  0  0  0  0
   -2.3563   -3.5990   -2.5636 O   0  0  0  0  0  0  0  0  0  0  0  0
   -1.9769   -3.2749   -1.2315 C   0  0  0  0  0  0  0  0  0  0  0  0
   -2.5221   -1.9235   -0.7711 C   0  0  0  0  0  0  0  0  0  0  0  0
   -2.0092   -1.6502    0.5447 O   0  0  0  0  0  0  0  0  0  0  0  0
   -1.4954   -0.3836    0.6113 C   0  0  0  0  0  0  0  0  0  0  0  0
   -0.1486   -0.2062    0.3046 C   0  0  0  0  0  0  0  0  0  0  0  0
    0.4341    1.0791    0.3779 C   0  0  0  0  0  0  0  0  0  0  0  0
   -0.3595    2.1678    0.7659 C   0  0  0  0  0  0  0  0  0  0  0  0
   -1.6980    1.9545    1.0865 C   0  0  0  0  0  0  0  0  0  0  0  0
   -2.2851    0.6907    1.0267 C   0  0  0  0  0  0  0  0  0  0  0  0
   -3.5858    0.4012    1.3359 O   0  0  0  0  0  0  0  0  0  0  0  0
   -4.4203    1.4313    1.8632 C   0  0  0  0  0  0  0  0  0  0  0  0
   -4.1793    1.6514    3.3563 C   0  0  0  0  0  0  0  0  0  0  0  0
   -4.9905    2.6968    3.8895 O   0  0  0  0  0  0  0  0  0  0  0  0
   -4.4929    3.9949    3.5957 C   0  0  0  0  0  0  0  0  0  0  0  0
    0.1159    3.4139    0.8438 N   0  0  0  0  0  0  0  0  0  0  0  0
    1.4016    3.5880    0.5193 C   0  0  0  0  0  0  0  0  0  0  0  0
    2.2542    2.6338    0.1350 N   0  0  0  0  0  0  0  0  0  0  0  0
    1.7780    1.3771    0.0746 C   0  0  0  0  0  0  0  0  0  0  0  0
    2.6458    0.3102   -0.2920 N   0  0  0  0  0  0  0  0  0  0  0  0
    3.9295    0.3775   -0.8818 C   0  0  0  0  0  0  0  0  0  0  0  0
    4.3388    1.4383   -1.6994 C   0  0  0  0  0  0  0  0  0  0  0  0
    5.5909    1.4310   -2.3237 C   0  0  0  0  0  0  0  0  0  0  0  0
    6.4419    0.3410   -2.1658 C   0  0  0  0  0  0  0  0  0  0  0  0
    6.0365   -0.7455   -1.3909 C   0  0  0  0  0  0  0  0  0  0  0  0
    4.7852   -0.7301   -0.7644 C   0  0  0  0  0  0  0  0  0  0  0  0
    6.8927   -1.8817   -1.2458 C   0  0  0  0  0  0  0  0  0  0  0  0
    7.6121   -2.8362   -1.1247 C   0  0  0  0  0  0  0  0  0  0  0  0
   -0.4715   -3.2796   -3.3902 H   0  0  0  0  0  0  0  0  0  0  0  0
   -1.6115   -1.9044   -3.5203 H   0  0  0  0  0  0  0  0  0  0  0  0
   -1.8357   -3.3467   -4.5365 H   0  0  0  0  0  0  0  0  0  0  0  0
   -0.8870   -3.3175   -1.1158 H   0  0  0  0  0  0  0  0  0  0  0  0
   -2.3793   -4.0586   -0.5790 H   0  0  0  0  0  0  0  0  0  0  0  0
   -3.6174   -1.9670   -0.7189 H   0  0  0  0  0  0  0  0  0  0  0  0
   -2.2746   -1.1391   -1.4949 H   0  0  0  0  0  0  0  0  0  0  0  0
    0.4355   -1.0670   -0.0079 H   0  0  0  0  0  0  0  0  0  0  0  0
   -2.2685    2.8281    1.3864 H   0  0  0  0  0  0  0  0  0  0  0  0
   -5.4569    1.0972    1.7348 H   0  0  0  0  0  0  0  0  0  0  0  0
   -4.3565    2.3464    1.2677 H   0  0  0  0  0  0  0  0  0  0  0  0
   -4.4406    0.7320    3.8903 H   0  0  0  0  0  0  0  0  0  0  0  0
   -3.1237    1.8342    3.5868 H   0  0  0  0  0  0  0  0  0  0  0  0
   -4.5822    4.2109    2.5276 H   0  0  0  0  0  0  0  0  0  0  0  0
   -5.0977    4.7257    4.1406 H   0  0  0  0  0  0  0  0  0  0  0  0
   -3.4505    4.0957    3.9186 H   0  0  0  0  0  0  0  0  0  0  0  0
    1.7901    4.6004    0.5758 H   0  0  0  0  0  0  0  0  0  0  0  0
    2.6183   -0.3926    0.4404 H   0  0  0  0  0  0  0  0  0  0  0  0
    3.6861    2.2899   -1.8665 H   0  0  0  0  0  0  0  0  0  0  0  0
    5.8930    2.2738   -2.9394 H   0  0  0  0  0  0  0  0  0  0  0  0
    7.4121    0.3390   -2.6567 H   0  0  0  0  0  0  0  0  0  0  0  0
    4.4790   -1.5959   -0.1788 H   0  0  0  0  0  0  0  0  0  0  0  0
    8.2520   -3.6809   -1.0195 H   0  0  0  0  0  0  0  0  0  0  0  0
  1  2  1  0
  2  3  1  0
  3  4  1  0
  4  5  1  0
  5  6  1  0
  6  7  2  0
  7  8  1  0
  8  9  2  0
  9 10  1  0
 10 11  2  0
 11 12  1  0
 12 13  1  0
 13 14  1  0
 14 15  1  0
 15 16  1  0
  9 17  1  0
 17 18  2  0
 18 19  1  0
 19 20  2  0
 20 21  1  0
 21 22  1  0
 22 23  2  0
 23 24  1  0
 24 25  2  0
 25 26  1  0
 26 27  2  0
 26 28  1  0
 28 29  3  0
 11  6  1  0
 20  8  1  0
 27 22  1  0
  1 30  1  0
  1 31  1  0
  1 32  1  0
  3 33  1  0
  3 34  1  0
  4 35  1  0
  4 36  1  0
  7 37  1  0
 10 38  1  0
 13 39  1  0
 13 40  1  0
 14 41  1  0
 14 42  1  0
 16 43  1  0
 16 44  1  0
 16 45  1  0
 18 46  1  0
 21 47  1  0
 23 48  1  0
 24 49  1  0
 25 50  1  0
 27 51  1  0
 29 52  1  0
M  END
>  <energy_abs>  (101) 
61.597520120539386

>  <SMILES>  (101) 
COCCOc1cc2c(cc1OCCOC)ncnc2Nc3cccc(c3)C#C

>  <cluster_no>  (101) 
101

>  <fda_drugs_id>  (101) 
AAKJLRGGTJKAMG-UHFFFAOYSA-N

>  <initial_conformation_id>  (101) 
199

>  <minimize_method>  (101) 
MMFF

$$$$

     RDKit          3D

 52 54  0  0  0  0  0  0  0  0999 V2000
   -1.5725   -4.8120   -2.2392 C   0  0  0  0  0  0  0  0  0  0  0  0
   -0.9345   -3.5415   -2.2599 O   0  0  0  0  0  0  0  0  0  0  0  0
   -1.7170   -2.5123   -1.6542 C   0  0  0  0  0  0  0  0  0  0  0  0
   -1.6683   -2.5691   -0.1267 C   0  0  0  0  0  0  0  0  0  0  0  0
   -2.2859   -1.4207    0.4501 O   0  0  0  0  0  0  0  0  0  0  0  0
   -1.5281   -0.3075    0.7069 C   0  0  0  0  0  0  0  0  0  0  0  0
   -0.2035   -0.1320    0.3034 C   0  0  0  0  0  0  0  0  0  0  0  0
    0.5016    1.0638    0.5976 C   0  0  0  0  0  0  0  0  0  0  0  0
   -0.1403    2.0773    1.3180 C   0  0  0  0  0  0  0  0  0  0  0  0
   -1.4600    1.8930    1.7111 C   0  0  0  0  0  0  0  0  0  0  0  0
   -2.1660    0.7214    1.4185 C   0  0  0  0  0  0  0  0  0  0  0  0
   -3.4719    0.4860    1.7663 O   0  0  0  0  0  0  0  0  0  0  0  0
   -4.1445    1.4039    2.6258 C   0  0  0  0  0  0  0  0  0  0  0  0
   -4.8502    2.4947    1.8248 C   0  0  0  0  0  0  0  0  0  0  0  0
   -5.4996    3.3936    2.7235 O   0  0  0  0  0  0  0  0  0  0  0  0
   -6.1825    4.4272    2.0260 C   0  0  0  0  0  0  0  0  0  0  0  0
    0.4615    3.2237    1.6437 N   0  0  0  0  0  0  0  0  0  0  0  0
    1.7333    3.3666    1.2580 C   0  0  0  0  0  0  0  0  0  0  0  0
    2.4510    2.4788    0.5670 N   0  0  0  0  0  0  0  0  0  0  0  0
    1.8363    1.3323    0.2260 C   0  0  0  0  0  0  0  0  0  0  0  0
    2.5398    0.3654   -0.5432 N   0  0  0  0  0  0  0  0  0  0  0  0
    3.9274    0.2816   -0.8016 C   0  0  0  0  0  0  0  0  0  0  0  0
    4.8951    0.7635    0.0881 C   0  0  0  0  0  0  0  0  0  0  0  0
    6.2597    0.5998   -0.1690 C   0  0  0  0  0  0  0  0  0  0  0  0
    6.6785   -0.0756   -1.3129 C   0  0  0  0  0  0  0  0  0  0  0  0
    5.7314   -0.5973   -2.1923 C   0  0  0  0  0  0  0  0  0  0  0  0
    4.3668   -0.4299   -1.9302 C   0  0  0  0  0  0  0  0  0  0  0  0
    6.1535   -1.3107   -3.3588 C   0  0  0  0  0  0  0  0  0  0  0  0
    6.5075   -1.9096   -4.3376 C   0  0  0  0  0  0  0  0  0  0  0  0
   -2.5445   -4.7640   -2.7395 H   0  0  0  0  0  0  0  0  0  0  0  0
   -1.6916   -5.1718   -1.2137 H   0  0  0  0  0  0  0  0  0  0  0  0
   -0.9390   -5.5207   -2.7797 H   0  0  0  0  0  0  0  0  0  0  0  0
   -1.3101   -1.5583   -2.0049 H   0  0  0  0  0  0  0  0  0  0  0  0
   -2.7520   -2.5447   -2.0161 H   0  0  0  0  0  0  0  0  0  0  0  0
   -2.2513   -3.4334    0.2118 H   0  0  0  0  0  0  0  0  0  0  0  0
   -0.6579   -2.7498    0.2587 H   0  0  0  0  0  0  0  0  0  0  0  0
    0.3162   -0.9138   -0.2404 H   0  0  0  0  0  0  0  0  0  0  0  0
   -1.9228    2.7102    2.2557 H   0  0  0  0  0  0  0  0  0  0  0  0
   -3.4958    1.8083    3.4119 H   0  0  0  0  0  0  0  0  0  0  0  0
   -4.9056    0.8295    3.1684 H   0  0  0  0  0  0  0  0  0  0  0  0
   -4.1334    3.0451    1.2054 H   0  0  0  0  0  0  0  0  0  0  0  0
   -5.5866    2.0393    1.1515 H   0  0  0  0  0  0  0  0  0  0  0  0
   -5.4780    5.0209    1.4357 H   0  0  0  0  0  0  0  0  0  0  0  0
   -6.9565    4.0052    1.3777 H   0  0  0  0  0  0  0  0  0  0  0  0
   -6.6602    5.0807    2.7607 H   0  0  0  0  0  0  0  0  0  0  0  0
    2.2281    4.2927    1.5294 H   0  0  0  0  0  0  0  0  0  0  0  0
    1.9980    0.1479   -1.3735 H   0  0  0  0  0  0  0  0  0  0  0  0
    4.5988    1.2706    1.0026 H   0  0  0  0  0  0  0  0  0  0  0  0
    6.9919    0.9941    0.5306 H   0  0  0  0  0  0  0  0  0  0  0  0
    7.7409   -0.2009   -1.5059 H   0  0  0  0  0  0  0  0  0  0  0  0
    3.6427   -0.8588   -2.6186 H   0  0  0  0  0  0  0  0  0  0  0  0
    6.8222   -2.4411   -5.2051 H   0  0  0  0  0  0  0  0  0  0  0  0
  1  2  1  0
  2  3  1  0
  3  4  1  0
  4  5  1  0
  5  6  1  0
  6  7  2  0
  7  8  1  0
  8  9  2  0
  9 10  1  0
 10 11  2  0
 11 12  1  0
 12 13  1  0
 13 14  1  0
 14 15  1  0
 15 16  1  0
  9 17  1  0
 17 18  2  0
 18 19  1  0
 19 20  2  0
 20 21  1  0
 21 22  1  0
 22 23  2  0
 23 24  1  0
 24 25  2  0
 25 26  1  0
 26 27  2  0
 26 28  1  0
 28 29  3  0
 11  6  1  0
 20  8  1  0
 27 22  1  0
  1 30  1  0
  1 31  1  0
  1 32  1  0
  3 33  1  0
  3 34  1  0
  4 35  1  0
  4 36  1  0
  7 37  1  0
 10 38  1  0
 13 39  1  0
 13 40  1  0
 14 41  1  0
 14 42  1  0
 16 43  1  0
 16 44  1  0
 16 45  1  0
 18 46  1  0
 21 47  1  0
 23 48  1  0
 24 49  1  0
 25 50  1  0
 27 51  1  0
 29 52  1  0
M  END
>  <energy_abs>  (102) 
60.168393949002116

>  <SMILES>  (102) 
COCCOc1cc2c(cc1OCCOC)ncnc2Nc3cccc(c3)C#C

>  <cluster_no>  (102) 
102

>  <fda_drugs_id>  (102) 
AAKJLRGGTJKAMG-UHFFFAOYSA-N

>  <initial_conformation_id>  (102) 
198

>  <minimize_method>  (102) 
MMFF

$$$$

     RDKit          3D

 52 54  0  0  0  0  0  0  0  0999 V2000
   -3.5857   -2.1727   -3.2311 C   0  0  0  0  0  0  0  0  0  0  0  0
   -3.2165   -2.5527   -1.9123 O   0  0  0  0  0  0  0  0  0  0  0  0
   -1.8149   -2.3781   -1.6864 C   0  0  0  0  0  0  0  0  0  0  0  0
   -1.4792   -2.7423   -0.2377 C   0  0  0  0  0  0  0  0  0  0  0  0
   -1.9496   -1.7686    0.6999 O   0  0  0  0  0  0  0  0  0  0  0  0
   -1.3175   -0.5576    0.7747 C   0  0  0  0  0  0  0  0  0  0  0  0
    0.0075   -0.3241    0.4090 C   0  0  0  0  0  0  0  0  0  0  0  0
    0.5843    0.9705    0.5229 C   0  0  0  0  0  0  0  0  0  0  0  0
   -0.1955    2.0349    0.9945 C   0  0  0  0  0  0  0  0  0  0  0  0
   -1.5077    1.7862    1.3684 C   0  0  0  0  0  0  0  0  0  0  0  0
   -2.0626    0.5049    1.2936 C   0  0  0  0  0  0  0  0  0  0  0  0
   -3.3768    0.2806    1.6132 O   0  0  0  0  0  0  0  0  0  0  0  0
   -3.7433    0.6827    2.9436 C   0  0  0  0  0  0  0  0  0  0  0  0
   -4.9897    1.5655    2.8737 C   0  0  0  0  0  0  0  0  0  0  0  0
   -4.6158    2.8866    2.4684 O   0  0  0  0  0  0  0  0  0  0  0  0
   -5.7533    3.6945    2.1831 C   0  0  0  0  0  0  0  0  0  0  0  0
    0.2723    3.2817    1.0978 N   0  0  0  0  0  0  0  0  0  0  0  0
    1.5385    3.4836    0.7224 C   0  0  0  0  0  0  0  0  0  0  0  0
    2.3821    2.5555    0.2657 N   0  0  0  0  0  0  0  0  0  0  0  0
    1.9117    1.2988    0.1746 C   0  0  0  0  0  0  0  0  0  0  0  0
    2.7780    0.2607   -0.2694 N   0  0  0  0  0  0  0  0  0  0  0  0
    4.0259    0.3754   -0.9250 C   0  0  0  0  0  0  0  0  0  0  0  0
    4.3512    1.4587   -1.7511 C   0  0  0  0  0  0  0  0  0  0  0  0
    5.5656    1.5020   -2.4434 C   0  0  0  0  0  0  0  0  0  0  0  0
    6.4653    0.4433   -2.3416 C   0  0  0  0  0  0  0  0  0  0  0  0
    6.1445   -0.6627   -1.5560 C   0  0  0  0  0  0  0  0  0  0  0  0
    4.9283   -0.6998   -0.8634 C   0  0  0  0  0  0  0  0  0  0  0  0
    7.0539   -1.7644   -1.4653 C   0  0  0  0  0  0  0  0  0  0  0  0
    7.8179   -2.6886   -1.3936 C   0  0  0  0  0  0  0  0  0  0  0  0
   -3.3654   -1.1135   -3.4040 H   0  0  0  0  0  0  0  0  0  0  0  0
   -4.6604   -2.3280   -3.3451 H   0  0  0  0  0  0  0  0  0  0  0  0
   -3.0625   -2.7911   -3.9670 H   0  0  0  0  0  0  0  0  0  0  0  0
   -1.2704   -3.0480   -2.3607 H   0  0  0  0  0  0  0  0  0  0  0  0
   -1.5399   -1.3422   -1.9093 H   0  0  0  0  0  0  0  0  0  0  0  0
   -0.4103   -2.9335   -0.1042 H   0  0  0  0  0  0  0  0  0  0  0  0
   -1.9923   -3.6761    0.0196 H   0  0  0  0  0  0  0  0  0  0  0  0
    0.6203   -1.1297    0.0219 H   0  0  0  0  0  0  0  0  0  0  0  0
   -2.1177    2.6201    1.7078 H   0  0  0  0  0  0  0  0  0  0  0  0
   -3.9834   -0.2363    3.4903 H   0  0  0  0  0  0  0  0  0  0  0  0
   -2.9342    1.1906    3.4816 H   0  0  0  0  0  0  0  0  0  0  0  0
   -5.7079    1.1493    2.1567 H   0  0  0  0  0  0  0  0  0  0  0  0
   -5.4547    1.6306    3.8647 H   0  0  0  0  0  0  0  0  0  0  0  0
   -6.4063    3.7707    3.0616 H   0  0  0  0  0  0  0  0  0  0  0  0
   -6.3081    3.2837    1.3318 H   0  0  0  0  0  0  0  0  0  0  0  0
   -5.4067    4.6971    1.9169 H   0  0  0  0  0  0  0  0  0  0  0  0
    1.9175    4.4969    0.7986 H   0  0  0  0  0  0  0  0  0  0  0  0
    2.7995   -0.4662    0.4392 H   0  0  0  0  0  0  0  0  0  0  0  0
    3.6579    2.2874   -1.8717 H   0  0  0  0  0  0  0  0  0  0  0  0
    5.8010    2.3605   -3.0672 H   0  0  0  0  0  0  0  0  0  0  0  0
    7.4066    0.4823   -2.8846 H   0  0  0  0  0  0  0  0  0  0  0  0
    4.6889   -1.5776   -0.2683 H   0  0  0  0  0  0  0  0  0  0  0  0
    8.4979   -3.5065   -1.3321 H   0  0  0  0  0  0  0  0  0  0  0  0
  1  2  1  0
  2  3  1  0
  3  4  1  0
  4  5  1  0
  5  6  1  0
  6  7  2  0
  7  8  1  0
  8  9  2  0
  9 10  1  0
 10 11  2  0
 11 12  1  0
 12 13  1  0
 13 14  1  0
 14 15  1  0
 15 16  1  0
  9 17  1  0
 17 18  2  0
 18 19  1  0
 19 20  2  0
 20 21  1  0
 21 22  1  0
 22 23  2  0
 23 24  1  0
 24 25  2  0
 25 26  1  0
 26 27  2  0
 26 28  1  0
 28 29  3  0
 11  6  1  0
 20  8  1  0
 27 22  1  0
  1 30  1  0
  1 31  1  0
  1 32  1  0
  3 33  1  0
  3 34  1  0
  4 35  1  0
  4 36  1  0
  7 37  1  0
 10 38  1  0
 13 39  1  0
 13 40  1  0
 14 41  1  0
 14 42  1  0
 16 43  1  0
 16 44  1  0
 16 45  1  0
 18 46  1  0
 21 47  1  0
 23 48  1  0
 24 49  1  0
 25 50  1  0
 27 51  1  0
 29 52  1  0
M  END
>  <energy_abs>  (103) 
63.13235341667736

>  <SMILES>  (103) 
COCCOc1cc2c(cc1OCCOC)ncnc2Nc3cccc(c3)C#C

>  <cluster_no>  (103) 
103

>  <fda_drugs_id>  (103) 
AAKJLRGGTJKAMG-UHFFFAOYSA-N

>  <initial_conformation_id>  (103) 
197

>  <minimize_method>  (103) 
MMFF

$$$$

     RDKit          3D

 52 54  0  0  0  0  0  0  0  0999 V2000
   -2.1030   -4.4335   -0.2397 C   0  0  0  0  0  0  0  0  0  0  0  0
   -3.3770   -4.1194   -0.7867 O   0  0  0  0  0  0  0  0  0  0  0  0
   -3.3816   -2.9251   -1.5782 C   0  0  0  0  0  0  0  0  0  0  0  0
   -3.1986   -1.6461   -0.7533 C   0  0  0  0  0  0  0  0  0  0  0  0
   -1.8001   -1.4321   -0.5433 O   0  0  0  0  0  0  0  0  0  0  0  0
   -1.3776   -0.2146   -0.0817 C   0  0  0  0  0  0  0  0  0  0  0  0
    0.0011   -0.0352   -0.2483 C   0  0  0  0  0  0  0  0  0  0  0  0
    0.6525    1.1556    0.1515 C   0  0  0  0  0  0  0  0  0  0  0  0
   -0.1010    2.1651    0.7545 C   0  0  0  0  0  0  0  0  0  0  0  0
   -1.4679    1.9721    0.9275 C   0  0  0  0  0  0  0  0  0  0  0  0
   -2.1289    0.8036    0.5174 C   0  0  0  0  0  0  0  0  0  0  0  0
   -3.4630    0.5867    0.7267 O   0  0  0  0  0  0  0  0  0  0  0  0
   -4.3189    1.6940    1.0100 C   0  0  0  0  0  0  0  0  0  0  0  0
   -4.5410    1.8468    2.5126 C   0  0  0  0  0  0  0  0  0  0  0  0
   -5.3828    2.9763    2.7445 O   0  0  0  0  0  0  0  0  0  0  0  0
   -5.6318    3.1699    4.1323 C   0  0  0  0  0  0  0  0  0  0  0  0
    0.4383    3.3100    1.1806 N   0  0  0  0  0  0  0  0  0  0  0  0
    1.7560    3.4549    1.0077 C   0  0  0  0  0  0  0  0  0  0  0  0
    2.5791    2.5686    0.4433 N   0  0  0  0  0  0  0  0  0  0  0  0
    2.0302    1.4218    0.0051 C   0  0  0  0  0  0  0  0  0  0  0  0
    2.8494    0.4513   -0.6344 N   0  0  0  0  0  0  0  0  0  0  0  0
    4.2603    0.3746   -0.6821 C   0  0  0  0  0  0  0  0  0  0  0  0
    5.0842    0.8813    0.3301 C   0  0  0  0  0  0  0  0  0  0  0  0
    6.4730    0.7240    0.2796 C   0  0  0  0  0  0  0  0  0  0  0  0
    7.0591    0.0286   -0.7753 C   0  0  0  0  0  0  0  0  0  0  0  0
    6.2544   -0.5190   -1.7720 C   0  0  0  0  0  0  0  0  0  0  0  0
    4.8652   -0.3559   -1.7183 C   0  0  0  0  0  0  0  0  0  0  0  0
    6.8465   -1.2610   -2.8427 C   0  0  0  0  0  0  0  0  0  0  0  0
    7.3428   -1.8889   -3.7380 C   0  0  0  0  0  0  0  0  0  0  0  0
   -1.8576   -3.7513    0.5784 H   0  0  0  0  0  0  0  0  0  0  0  0
   -1.3252   -4.4086   -1.0086 H   0  0  0  0  0  0  0  0  0  0  0  0
   -2.1523   -5.4468    0.1698 H   0  0  0  0  0  0  0  0  0  0  0  0
   -2.6236   -3.0075   -2.3671 H   0  0  0  0  0  0  0  0  0  0  0  0
   -4.3661   -2.8927   -2.0576 H   0  0  0  0  0  0  0  0  0  0  0  0
   -3.7043   -1.7611    0.2110 H   0  0  0  0  0  0  0  0  0  0  0  0
   -3.6136   -0.8112   -1.3291 H   0  0  0  0  0  0  0  0  0  0  0  0
    0.5739   -0.8484   -0.6896 H   0  0  0  0  0  0  0  0  0  0  0  0
   -2.0045    2.7774    1.4213 H   0  0  0  0  0  0  0  0  0  0  0  0
   -5.2860    1.4750    0.5391 H   0  0  0  0  0  0  0  0  0  0  0  0
   -3.9885    2.6261    0.5358 H   0  0  0  0  0  0  0  0  0  0  0  0
   -5.0084    0.9388    2.9130 H   0  0  0  0  0  0  0  0  0  0  0  0
   -3.5851    1.9840    3.0317 H   0  0  0  0  0  0  0  0  0  0  0  0
   -6.2488    4.0650    4.2486 H   0  0  0  0  0  0  0  0  0  0  0  0
   -6.1727    2.3130    4.5456 H   0  0  0  0  0  0  0  0  0  0  0  0
   -4.6934    3.3225    4.6741 H   0  0  0  0  0  0  0  0  0  0  0  0
    2.1983    4.3817    1.3569 H   0  0  0  0  0  0  0  0  0  0  0  0
    2.4368    0.2148   -1.5310 H   0  0  0  0  0  0  0  0  0  0  0  0
    4.6543    1.4015    1.1819 H   0  0  0  0  0  0  0  0  0  0  0  0
    7.0923    1.1367    1.0716 H   0  0  0  0  0  0  0  0  0  0  0  0
    8.1389   -0.0937   -0.8059 H   0  0  0  0  0  0  0  0  0  0  0  0
    4.2523   -0.8041   -2.4964 H   0  0  0  0  0  0  0  0  0  0  0  0
    7.7847   -2.4462   -4.5311 H   0  0  0  0  0  0  0  0  0  0  0  0
  1  2  1  0
  2  3  1  0
  3  4  1  0
  4  5  1  0
  5  6  1  0
  6  7  2  0
  7  8  1  0
  8  9  2  0
  9 10  1  0
 10 11  2  0
 11 12  1  0
 12 13  1  0
 13 14  1  0
 14 15  1  0
 15 16  1  0
  9 17  1  0
 17 18  2  0
 18 19  1  0
 19 20  2  0
 20 21  1  0
 21 22  1  0
 22 23  2  0
 23 24  1  0
 24 25  2  0
 25 26  1  0
 26 27  2  0
 26 28  1  0
 28 29  3  0
 11  6  1  0
 20  8  1  0
 27 22  1  0
  1 30  1  0
  1 31  1  0
  1 32  1  0
  3 33  1  0
  3 34  1  0
  4 35  1  0
  4 36  1  0
  7 37  1  0
 10 38  1  0
 13 39  1  0
 13 40  1  0
 14 41  1  0
 14 42  1  0
 16 43  1  0
 16 44  1  0
 16 45  1  0
 18 46  1  0
 21 47  1  0
 23 48  1  0
 24 49  1  0
 25 50  1  0
 27 51  1  0
 29 52  1  0
M  END
>  <energy_abs>  (104) 
58.24247282548265

>  <SMILES>  (104) 
COCCOc1cc2c(cc1OCCOC)ncnc2Nc3cccc(c3)C#C

>  <cluster_no>  (104) 
104

>  <fda_drugs_id>  (104) 
AAKJLRGGTJKAMG-UHFFFAOYSA-N

>  <initial_conformation_id>  (104) 
196

>  <minimize_method>  (104) 
MMFF

$$$$

     RDKit          3D

 52 54  0  0  0  0  0  0  0  0999 V2000
   -4.3483   -2.9406    0.3423 C   0  0  0  0  0  0  0  0  0  0  0  0
   -3.3197   -2.2932    1.0760 O   0  0  0  0  0  0  0  0  0  0  0  0
   -2.0012   -2.5718    0.6039 C   0  0  0  0  0  0  0  0  0  0  0  0
   -1.7244   -2.1578   -0.8531 C   0  0  0  0  0  0  0  0  0  0  0  0
   -2.0634   -0.7971   -1.1587 O   0  0  0  0  0  0  0  0  0  0  0  0
   -1.3330    0.1346   -0.4707 C   0  0  0  0  0  0  0  0  0  0  0  0
    0.0500    0.2190   -0.6107 C   0  0  0  0  0  0  0  0  0  0  0  0
    0.7849    1.2000    0.0991 C   0  0  0  0  0  0  0  0  0  0  0  0
    0.1059    2.0923    0.9411 C   0  0  0  0  0  0  0  0  0  0  0  0
   -1.2785    2.0095    1.0396 C   0  0  0  0  0  0  0  0  0  0  0  0
   -2.0109    1.0450    0.3435 C   0  0  0  0  0  0  0  0  0  0  0  0
   -3.3748    0.9308    0.3809 O   0  0  0  0  0  0  0  0  0  0  0  0
   -4.0304    1.4313    1.5473 C   0  0  0  0  0  0  0  0  0  0  0  0
   -5.4522    0.8713    1.5746 C   0  0  0  0  0  0  0  0  0  0  0  0
   -6.2029    1.3506    2.6905 O   0  0  0  0  0  0  0  0  0  0  0  0
   -6.7731    2.6332    2.4666 C   0  0  0  0  0  0  0  0  0  0  0  0
    0.7357    3.0302    1.6526 N   0  0  0  0  0  0  0  0  0  0  0  0
    2.0668    3.0803    1.5387 C   0  0  0  0  0  0  0  0  0  0  0  0
    2.8230    2.2918    0.7719 N   0  0  0  0  0  0  0  0  0  0  0  0
    2.1844    1.3602    0.0422 C   0  0  0  0  0  0  0  0  0  0  0  0
    2.9322    0.5208   -0.8284 N   0  0  0  0  0  0  0  0  0  0  0  0
    4.3258    0.2846   -0.8426 C   0  0  0  0  0  0  0  0  0  0  0  0
    5.1182    0.3628    0.3091 C   0  0  0  0  0  0  0  0  0  0  0  0
    6.4788    0.0434    0.2738 C   0  0  0  0  0  0  0  0  0  0  0  0
    7.0649   -0.3861   -0.9149 C   0  0  0  0  0  0  0  0  0  0  0  0
    6.2865   -0.5051   -2.0647 C   0  0  0  0  0  0  0  0  0  0  0  0
    4.9247   -0.1840   -2.0238 C   0  0  0  0  0  0  0  0  0  0  0  0
    6.8770   -0.9624   -3.2852 C   0  0  0  0  0  0  0  0  0  0  0  0
    7.3729   -1.3392   -4.3114 C   0  0  0  0  0  0  0  0  0  0  0  0
   -4.1287   -4.0051    0.2144 H   0  0  0  0  0  0  0  0  0  0  0  0
   -5.2832   -2.8415    0.9042 H   0  0  0  0  0  0  0  0  0  0  0  0
   -4.4876   -2.4587   -0.6315 H   0  0  0  0  0  0  0  0  0  0  0  0
   -1.3164   -2.0431    1.2766 H   0  0  0  0  0  0  0  0  0  0  0  0
   -1.7971   -3.6410    0.7266 H   0  0  0  0  0  0  0  0  0  0  0  0
   -0.6805   -2.3717   -1.1215 H   0  0  0  0  0  0  0  0  0  0  0  0
   -2.3368   -2.7714   -1.5239 H   0  0  0  0  0  0  0  0  0  0  0  0
    0.5620   -0.4745   -1.2703 H   0  0  0  0  0  0  0  0  0  0  0  0
   -1.7775    2.7350    1.6750 H   0  0  0  0  0  0  0  0  0  0  0  0
   -4.0595    2.5273    1.5114 H   0  0  0  0  0  0  0  0  0  0  0  0
   -3.5104    1.1239    2.4637 H   0  0  0  0  0  0  0  0  0  0  0  0
   -5.9780    1.0709    0.6334 H   0  0  0  0  0  0  0  0  0  0  0  0
   -5.4008   -0.2191    1.6637 H   0  0  0  0  0  0  0  0  0  0  0  0
   -7.3826    2.8932    3.3369 H   0  0  0  0  0  0  0  0  0  0  0  0
   -7.4200    2.6196    1.5843 H   0  0  0  0  0  0  0  0  0  0  0  0
   -5.9939    3.3908    2.3519 H   0  0  0  0  0  0  0  0  0  0  0  0
    2.5814    3.8358    2.1219 H   0  0  0  0  0  0  0  0  0  0  0  0
    2.5645    0.6225   -1.7691 H   0  0  0  0  0  0  0  0  0  0  0  0
    4.6837    0.6691    1.2567 H   0  0  0  0  0  0  0  0  0  0  0  0
    7.0758    0.1226    1.1783 H   0  0  0  0  0  0  0  0  0  0  0  0
    8.1223   -0.6360   -0.9344 H   0  0  0  0  0  0  0  0  0  0  0  0
    4.3298   -0.2994   -2.9265 H   0  0  0  0  0  0  0  0  0  0  0  0
    7.8163   -1.6664   -5.2247 H   0  0  0  0  0  0  0  0  0  0  0  0
  1  2  1  0
  2  3  1  0
  3  4  1  0
  4  5  1  0
  5  6  1  0
  6  7  2  0
  7  8  1  0
  8  9  2  0
  9 10  1  0
 10 11  2  0
 11 12  1  0
 12 13  1  0
 13 14  1  0
 14 15  1  0
 15 16  1  0
  9 17  1  0
 17 18  2  0
 18 19  1  0
 19 20  2  0
 20 21  1  0
 21 22  1  0
 22 23  2  0
 23 24  1  0
 24 25  2  0
 25 26  1  0
 26 27  2  0
 26 28  1  0
 28 29  3  0
 11  6  1  0
 20  8  1  0
 27 22  1  0
  1 30  1  0
  1 31  1  0
  1 32  1  0
  3 33  1  0
  3 34  1  0
  4 35  1  0
  4 36  1  0
  7 37  1  0
 10 38  1  0
 13 39  1  0
 13 40  1  0
 14 41  1  0
 14 42  1  0
 16 43  1  0
 16 44  1  0
 16 45  1  0
 18 46  1  0
 21 47  1  0
 23 48  1  0
 24 49  1  0
 25 50  1  0
 27 51  1  0
 29 52  1  0
M  END
>  <energy_abs>  (105) 
63.0063953551686

>  <SMILES>  (105) 
COCCOc1cc2c(cc1OCCOC)ncnc2Nc3cccc(c3)C#C

>  <cluster_no>  (105) 
105

>  <fda_drugs_id>  (105) 
AAKJLRGGTJKAMG-UHFFFAOYSA-N

>  <initial_conformation_id>  (105) 
195

>  <minimize_method>  (105) 
MMFF

$$$$

     RDKit          3D

 52 54  0  0  0  0  0  0  0  0999 V2000
   -0.9123   -1.3347   -3.7552 C   0  0  0  0  0  0  0  0  0  0  0  0
   -0.8187   -1.6757   -2.3784 O   0  0  0  0  0  0  0  0  0  0  0  0
   -2.0334   -2.2502   -1.8879 C   0  0  0  0  0  0  0  0  0  0  0  0
   -1.9451   -2.4218   -0.3694 C   0  0  0  0  0  0  0  0  0  0  0  0
   -2.4644   -1.2856    0.3315 O   0  0  0  0  0  0  0  0  0  0  0  0
   -1.7285   -0.1394    0.4223 C   0  0  0  0  0  0  0  0  0  0  0  0
   -0.3601   -0.0400    0.1738 C   0  0  0  0  0  0  0  0  0  0  0  0
    0.3238    1.2058    0.2635 C   0  0  0  0  0  0  0  0  0  0  0  0
   -0.3928    2.3613    0.6013 C   0  0  0  0  0  0  0  0  0  0  0  0
   -1.7488    2.2502    0.8610 C   0  0  0  0  0  0  0  0  0  0  0  0
   -2.4110    1.0211    0.8001 C   0  0  0  0  0  0  0  0  0  0  0  0
   -3.7587    1.0674    1.0524 O   0  0  0  0  0  0  0  0  0  0  0  0
   -4.1579    0.2032    2.1263 C   0  0  0  0  0  0  0  0  0  0  0  0
   -5.2824    0.8825    2.9140 C   0  0  0  0  0  0  0  0  0  0  0  0
   -4.8724    2.0864    3.5716 O   0  0  0  0  0  0  0  0  0  0  0  0
   -4.0536    1.8654    4.7101 C   0  0  0  0  0  0  0  0  0  0  0  0
    0.1739    3.5677    0.6865 N   0  0  0  0  0  0  0  0  0  0  0  0
    1.4811    3.6366    0.4199 C   0  0  0  0  0  0  0  0  0  0  0  0
    2.2736    2.6143    0.0930 N   0  0  0  0  0  0  0  0  0  0  0  0
    1.7011    1.3986    0.0204 C   0  0  0  0  0  0  0  0  0  0  0  0
    2.5059    0.2700   -0.2972 N   0  0  0  0  0  0  0  0  0  0  0  0
    3.8184    0.2404   -0.8215 C   0  0  0  0  0  0  0  0  0  0  0  0
    4.3266    1.2482   -1.6508 C   0  0  0  0  0  0  0  0  0  0  0  0
    5.6076    1.1540   -2.2040 C   0  0  0  0  0  0  0  0  0  0  0  0
    6.3937    0.0315   -1.9555 C   0  0  0  0  0  0  0  0  0  0  0  0
    5.8931   -1.0007   -1.1632 C   0  0  0  0  0  0  0  0  0  0  0  0
    4.6095   -0.9011   -0.6127 C   0  0  0  0  0  0  0  0  0  0  0  0
    6.6896   -2.1637   -0.9162 C   0  0  0  0  0  0  0  0  0  0  0  0
    7.3611   -3.1374   -0.7067 C   0  0  0  0  0  0  0  0  0  0  0  0
    0.0530   -0.9337   -4.0766 H   0  0  0  0  0  0  0  0  0  0  0  0
   -1.6773   -0.5659   -3.9052 H   0  0  0  0  0  0  0  0  0  0  0  0
   -1.1431   -2.2195   -4.3566 H   0  0  0  0  0  0  0  0  0  0  0  0
   -2.1491   -3.2324   -2.3592 H   0  0  0  0  0  0  0  0  0  0  0  0
   -2.8856   -1.6133   -2.1537 H   0  0  0  0  0  0  0  0  0  0  0  0
   -0.9431   -2.6922   -0.0205 H   0  0  0  0  0  0  0  0  0  0  0  0
   -2.6069   -3.2485   -0.0873 H   0  0  0  0  0  0  0  0  0  0  0  0
    0.2056   -0.9154   -0.1270 H   0  0  0  0  0  0  0  0  0  0  0  0
   -2.3136    3.1428    1.1230 H   0  0  0  0  0  0  0  0  0  0  0  0
   -3.3196   -0.0363    2.7912 H   0  0  0  0  0  0  0  0  0  0  0  0
   -4.5466   -0.7262    1.6955 H   0  0  0  0  0  0  0  0  0  0  0  0
   -6.0803    1.1713    2.2211 H   0  0  0  0  0  0  0  0  0  0  0  0
   -5.7128    0.1916    3.6477 H   0  0  0  0  0  0  0  0  0  0  0  0
   -3.8864    2.8284    5.2017 H   0  0  0  0  0  0  0  0  0  0  0  0
   -3.0802    1.4581    4.4225 H   0  0  0  0  0  0  0  0  0  0  0  0
   -4.5481    1.1956    5.4202 H   0  0  0  0  0  0  0  0  0  0  0  0
    1.9425    4.6158    0.4772 H   0  0  0  0  0  0  0  0  0  0  0  0
    2.3729   -0.4391    0.4153 H   0  0  0  0  0  0  0  0  0  0  0  0
    3.7267    2.1239   -1.8833 H   0  0  0  0  0  0  0  0  0  0  0  0
    5.9836    1.9562   -2.8339 H   0  0  0  0  0  0  0  0  0  0  0  0
    7.3890   -0.0354   -2.3884 H   0  0  0  0  0  0  0  0  0  0  0  0
    4.2300   -1.7226   -0.0101 H   0  0  0  0  0  0  0  0  0  0  0  0
    7.9553   -4.0012   -0.5238 H   0  0  0  0  0  0  0  0  0  0  0  0
  1  2  1  0
  2  3  1  0
  3  4  1  0
  4  5  1  0
  5  6  1  0
  6  7  2  0
  7  8  1  0
  8  9  2  0
  9 10  1  0
 10 11  2  0
 11 12  1  0
 12 13  1  0
 13 14  1  0
 14 15  1  0
 15 16  1  0
  9 17  1  0
 17 18  2  0
 18 19  1  0
 19 20  2  0
 20 21  1  0
 21 22  1  0
 22 23  2  0
 23 24  1  0
 24 25  2  0
 25 26  1  0
 26 27  2  0
 26 28  1  0
 28 29  3  0
 11  6  1  0
 20  8  1  0
 27 22  1  0
  1 30  1  0
  1 31  1  0
  1 32  1  0
  3 33  1  0
  3 34  1  0
  4 35  1  0
  4 36  1  0
  7 37  1  0
 10 38  1  0
 13 39  1  0
 13 40  1  0
 14 41  1  0
 14 42  1  0
 16 43  1  0
 16 44  1  0
 16 45  1  0
 18 46  1  0
 21 47  1  0
 23 48  1  0
 24 49  1  0
 25 50  1  0
 27 51  1  0
 29 52  1  0
M  END
>  <energy_abs>  (106) 
61.441768466078194

>  <SMILES>  (106) 
COCCOc1cc2c(cc1OCCOC)ncnc2Nc3cccc(c3)C#C

>  <cluster_no>  (106) 
106

>  <fda_drugs_id>  (106) 
AAKJLRGGTJKAMG-UHFFFAOYSA-N

>  <initial_conformation_id>  (106) 
194

>  <minimize_method>  (106) 
MMFF

$$$$

     RDKit          3D

 52 54  0  0  0  0  0  0  0  0999 V2000
   -1.9618   -4.2309   -3.3102 C   0  0  0  0  0  0  0  0  0  0  0  0
   -2.0924   -4.3748   -1.9023 O   0  0  0  0  0  0  0  0  0  0  0  0
   -2.6786   -3.2322   -1.2784 C   0  0  0  0  0  0  0  0  0  0  0  0
   -1.6388   -2.1556   -0.9696 C   0  0  0  0  0  0  0  0  0  0  0  0
   -2.2977   -1.0621   -0.3353 O   0  0  0  0  0  0  0  0  0  0  0  0
   -1.5360   -0.0040    0.0883 C   0  0  0  0  0  0  0  0  0  0  0  0
   -0.1608    0.1179   -0.1166 C   0  0  0  0  0  0  0  0  0  0  0  0
    0.5519    1.2503    0.3556 C   0  0  0  0  0  0  0  0  0  0  0  0
   -0.1345    2.2488    1.0560 C   0  0  0  0  0  0  0  0  0  0  0  0
   -1.5042    2.1175    1.2492 C   0  0  0  0  0  0  0  0  0  0  0  0
   -2.2193    1.0149    0.7710 C   0  0  0  0  0  0  0  0  0  0  0  0
   -3.5680    0.8240    0.9312 O   0  0  0  0  0  0  0  0  0  0  0  0
   -4.3619    1.8614    1.5032 C   0  0  0  0  0  0  0  0  0  0  0  0
   -4.4392    1.7249    3.0241 C   0  0  0  0  0  0  0  0  0  0  0  0
   -5.1839    2.7879    3.6195 O   0  0  0  0  0  0  0  0  0  0  0  0
   -6.5893    2.5818    3.5634 C   0  0  0  0  0  0  0  0  0  0  0  0
    0.4728    3.3295    1.5517 N   0  0  0  0  0  0  0  0  0  0  0  0
    1.7919    3.4223    1.3574 C   0  0  0  0  0  0  0  0  0  0  0  0
    2.5545    2.5447    0.7025 N   0  0  0  0  0  0  0  0  0  0  0  0
    1.9369    1.4648    0.1919 C   0  0  0  0  0  0  0  0  0  0  0  0
    2.6912    0.5194   -0.5567 N   0  0  0  0  0  0  0  0  0  0  0  0
    4.0962    0.3744   -0.6267 C   0  0  0  0  0  0  0  0  0  0  0  0
    4.9453    0.7076    0.4355 C   0  0  0  0  0  0  0  0  0  0  0  0
    6.3233    0.4841    0.3573 C   0  0  0  0  0  0  0  0  0  0  0  0
    6.8718   -0.1038   -0.7801 C   0  0  0  0  0  0  0  0  0  0  0  0
    6.0395   -0.4787   -1.8332 C   0  0  0  0  0  0  0  0  0  0  0  0
    4.6608   -0.2521   -1.7498 C   0  0  0  0  0  0  0  0  0  0  0  0
    6.5924   -1.1021   -2.9966 C   0  0  0  0  0  0  0  0  0  0  0  0
    7.0567   -1.6251   -3.9728 C   0  0  0  0  0  0  0  0  0  0  0  0
   -1.2994   -3.3978   -3.5596 H   0  0  0  0  0  0  0  0  0  0  0  0
   -1.5245   -5.1504   -3.7086 H   0  0  0  0  0  0  0  0  0  0  0  0
   -2.9425   -4.0851   -3.7730 H   0  0  0  0  0  0  0  0  0  0  0  0
   -3.1291   -3.5687   -0.3376 H   0  0  0  0  0  0  0  0  0  0  0  0
   -3.5023   -2.8311   -1.8819 H   0  0  0  0  0  0  0  0  0  0  0  0
   -0.8701   -2.5827   -0.3138 H   0  0  0  0  0  0  0  0  0  0  0  0
   -1.1641   -1.8209   -1.8986 H   0  0  0  0  0  0  0  0  0  0  0  0
    0.3906   -0.6645   -0.6271 H   0  0  0  0  0  0  0  0  0  0  0  0
   -1.9947    2.9125    1.8026 H   0  0  0  0  0  0  0  0  0  0  0  0
   -5.3676    1.7406    1.0852 H   0  0  0  0  0  0  0  0  0  0  0  0
   -4.0519    2.8639    1.1856 H   0  0  0  0  0  0  0  0  0  0  0  0
   -4.8478    0.7486    3.3129 H   0  0  0  0  0  0  0  0  0  0  0  0
   -3.4314    1.7639    3.4502 H   0  0  0  0  0  0  0  0  0  0  0  0
   -6.8625    1.6536    4.0745 H   0  0  0  0  0  0  0  0  0  0  0  0
   -6.9412    2.5612    2.5286 H   0  0  0  0  0  0  0  0  0  0  0  0
   -7.0772    3.4155    4.0757 H   0  0  0  0  0  0  0  0  0  0  0  0
    2.2890    4.2947    1.7675 H   0  0  0  0  0  0  0  0  0  0  0  0
    2.2660    0.4201   -1.4727 H   0  0  0  0  0  0  0  0  0  0  0  0
    4.5427    1.1433    1.3462 H   0  0  0  0  0  0  0  0  0  0  0  0
    6.9635    0.7635    1.1899 H   0  0  0  0  0  0  0  0  0  0  0  0
    7.9438   -0.2763   -0.8335 H   0  0  0  0  0  0  0  0  0  0  0  0
    4.0258   -0.5659   -2.5743 H   0  0  0  0  0  0  0  0  0  0  0  0
    7.4716   -2.0885   -4.8374 H   0  0  0  0  0  0  0  0  0  0  0  0
  1  2  1  0
  2  3  1  0
  3  4  1  0
  4  5  1  0
  5  6  1  0
  6  7  2  0
  7  8  1  0
  8  9  2  0
  9 10  1  0
 10 11  2  0
 11 12  1  0
 12 13  1  0
 13 14  1  0
 14 15  1  0
 15 16  1  0
  9 17  1  0
 17 18  2  0
 18 19  1  0
 19 20  2  0
 20 21  1  0
 21 22  1  0
 22 23  2  0
 23 24  1  0
 24 25  2  0
 25 26  1  0
 26 27  2  0
 26 28  1  0
 28 29  3  0
 11  6  1  0
 20  8  1  0
 27 22  1  0
  1 30  1  0
  1 31  1  0
  1 32  1  0
  3 33  1  0
  3 34  1  0
  4 35  1  0
  4 36  1  0
  7 37  1  0
 10 38  1  0
 13 39  1  0
 13 40  1  0
 14 41  1  0
 14 42  1  0
 16 43  1  0
 16 44  1  0
 16 45  1  0
 18 46  1  0
 21 47  1  0
 23 48  1  0
 24 49  1  0
 25 50  1  0
 27 51  1  0
 29 52  1  0
M  END
>  <energy_abs>  (107) 
60.60054846815632

>  <SMILES>  (107) 
COCCOc1cc2c(cc1OCCOC)ncnc2Nc3cccc(c3)C#C

>  <cluster_no>  (107) 
107

>  <fda_drugs_id>  (107) 
AAKJLRGGTJKAMG-UHFFFAOYSA-N

>  <initial_conformation_id>  (107) 
193

>  <minimize_method>  (107) 
MMFF

$$$$

     RDKit          3D

 52 54  0  0  0  0  0  0  0  0999 V2000
   -1.9059   -4.3908   -0.4898 C   0  0  0  0  0  0  0  0  0  0  0  0
   -2.7261   -3.8697   -1.5267 O   0  0  0  0  0  0  0  0  0  0  0  0
   -3.5143   -2.7450   -1.1197 C   0  0  0  0  0  0  0  0  0  0  0  0
   -2.6925   -1.4638   -0.9596 C   0  0  0  0  0  0  0  0  0  0  0  0
   -2.0670   -1.4651    0.3351 O   0  0  0  0  0  0  0  0  0  0  0  0
   -1.3581   -0.3069    0.5235 C   0  0  0  0  0  0  0  0  0  0  0  0
    0.0154   -0.3451    0.2983 C   0  0  0  0  0  0  0  0  0  0  0  0
    0.8074    0.8063    0.5145 C   0  0  0  0  0  0  0  0  0  0  0  0
    0.1916    1.9862    0.9558 C   0  0  0  0  0  0  0  0  0  0  0  0
   -1.1800    1.9893    1.1961 C   0  0  0  0  0  0  0  0  0  0  0  0
   -1.9707    0.8540    1.0001 C   0  0  0  0  0  0  0  0  0  0  0  0
   -3.3186    0.7795    1.2280 O   0  0  0  0  0  0  0  0  0  0  0  0
   -3.9501    1.9104    1.8277 C   0  0  0  0  0  0  0  0  0  0  0  0
   -5.4163    1.5639    2.0856 C   0  0  0  0  0  0  0  0  0  0  0  0
   -6.1170    2.6294    2.7264 O   0  0  0  0  0  0  0  0  0  0  0  0
   -6.5661    3.6263    1.8181 C   0  0  0  0  0  0  0  0  0  0  0  0
    0.8696    3.1176    1.1601 N   0  0  0  0  0  0  0  0  0  0  0  0
    2.1845    3.0834    0.9186 C   0  0  0  0  0  0  0  0  0  0  0  0
    2.8828    2.0239    0.5046 N   0  0  0  0  0  0  0  0  0  0  0  0
    2.2004    0.8817    0.3111 C   0  0  0  0  0  0  0  0  0  0  0  0
    2.8970   -0.2886   -0.0967 N   0  0  0  0  0  0  0  0  0  0  0  0
    4.2124   -0.3989   -0.6035 C   0  0  0  0  0  0  0  0  0  0  0  0
    4.8834   -1.6272   -0.4869 C   0  0  0  0  0  0  0  0  0  0  0  0
    6.1591   -1.8089   -1.0281 C   0  0  0  0  0  0  0  0  0  0  0  0
    6.7753   -0.7687   -1.7194 C   0  0  0  0  0  0  0  0  0  0  0  0
    6.1101    0.4465   -1.8787 C   0  0  0  0  0  0  0  0  0  0  0  0
    4.8327    0.6225   -1.3343 C   0  0  0  0  0  0  0  0  0  0  0  0
    6.7301    1.5099   -2.6090 C   0  0  0  0  0  0  0  0  0  0  0  0
    7.2496    2.4024   -3.2218 C   0  0  0  0  0  0  0  0  0  0  0  0
   -2.4843   -4.5637    0.4227 H   0  0  0  0  0  0  0  0  0  0  0  0
   -1.0647   -3.7223   -0.2907 H   0  0  0  0  0  0  0  0  0  0  0  0
   -1.4998   -5.3482   -0.8281 H   0  0  0  0  0  0  0  0  0  0  0  0
   -4.2444   -2.5903   -1.9210 H   0  0  0  0  0  0  0  0  0  0  0  0
   -4.0662   -2.9909   -0.2053 H   0  0  0  0  0  0  0  0  0  0  0  0
   -3.3677   -0.6042   -1.0426 H   0  0  0  0  0  0  0  0  0  0  0  0
   -1.9257   -1.4092   -1.7422 H   0  0  0  0  0  0  0  0  0  0  0  0
    0.4595   -1.2689   -0.0624 H   0  0  0  0  0  0  0  0  0  0  0  0
   -1.6126    2.9218    1.5464 H   0  0  0  0  0  0  0  0  0  0  0  0
   -3.4719    2.1663    2.7814 H   0  0  0  0  0  0  0  0  0  0  0  0
   -3.8860    2.7740    1.1566 H   0  0  0  0  0  0  0  0  0  0  0  0
   -5.9225    1.2600    1.1609 H   0  0  0  0  0  0  0  0  0  0  0  0
   -5.4619    0.6959    2.7534 H   0  0  0  0  0  0  0  0  0  0  0  0
   -7.1205    4.3796    2.3845 H   0  0  0  0  0  0  0  0  0  0  0  0
   -5.7223    4.1178    1.3267 H   0  0  0  0  0  0  0  0  0  0  0  0
   -7.2372    3.1913    1.0713 H   0  0  0  0  0  0  0  0  0  0  0  0
    2.7374    4.0030    1.0766 H   0  0  0  0  0  0  0  0  0  0  0  0
    2.6884   -1.0365    0.5566 H   0  0  0  0  0  0  0  0  0  0  0  0
    4.4186   -2.4605    0.0340 H   0  0  0  0  0  0  0  0  0  0  0  0
    6.6674   -2.7629   -0.9155 H   0  0  0  0  0  0  0  0  0  0  0  0
    7.7668   -0.9136   -2.1410 H   0  0  0  0  0  0  0  0  0  0  0  0
    4.3199    1.5675   -1.4928 H   0  0  0  0  0  0  0  0  0  0  0  0
    7.7082    3.1954   -3.7648 H   0  0  0  0  0  0  0  0  0  0  0  0
  1  2  1  0
  2  3  1  0
  3  4  1  0
  4  5  1  0
  5  6  1  0
  6  7  2  0
  7  8  1  0
  8  9  2  0
  9 10  1  0
 10 11  2  0
 11 12  1  0
 12 13  1  0
 13 14  1  0
 14 15  1  0
 15 16  1  0
  9 17  1  0
 17 18  2  0
 18 19  1  0
 19 20  2  0
 20 21  1  0
 21 22  1  0
 22 23  2  0
 23 24  1  0
 24 25  2  0
 25 26  1  0
 26 27  2  0
 26 28  1  0
 28 29  3  0
 11  6  1  0
 20  8  1  0
 27 22  1  0
  1 30  1  0
  1 31  1  0
  1 32  1  0
  3 33  1  0
  3 34  1  0
  4 35  1  0
  4 36  1  0
  7 37  1  0
 10 38  1  0
 13 39  1  0
 13 40  1  0
 14 41  1  0
 14 42  1  0
 16 43  1  0
 16 44  1  0
 16 45  1  0
 18 46  1  0
 21 47  1  0
 23 48  1  0
 24 49  1  0
 25 50  1  0
 27 51  1  0
 29 52  1  0
M  END
>  <energy_abs>  (108) 
58.17801082139904

>  <SMILES>  (108) 
COCCOc1cc2c(cc1OCCOC)ncnc2Nc3cccc(c3)C#C

>  <cluster_no>  (108) 
108

>  <fda_drugs_id>  (108) 
AAKJLRGGTJKAMG-UHFFFAOYSA-N

>  <initial_conformation_id>  (108) 
192

>  <minimize_method>  (108) 
MMFF

$$$$

     RDKit          3D

 52 54  0  0  0  0  0  0  0  0999 V2000
   -3.9041   -5.1842    0.5098 C   0  0  0  0  0  0  0  0  0  0  0  0
   -2.8835   -4.1959    0.4834 O   0  0  0  0  0  0  0  0  0  0  0  0
   -2.7218   -3.6398   -0.8258 C   0  0  0  0  0  0  0  0  0  0  0  0
   -1.6708   -2.5293   -0.7817 C   0  0  0  0  0  0  0  0  0  0  0  0
   -2.2640   -1.3595   -0.2127 O   0  0  0  0  0  0  0  0  0  0  0  0
   -1.4783   -0.2491   -0.0531 C   0  0  0  0  0  0  0  0  0  0  0  0
   -0.1431   -0.1506   -0.4471 C   0  0  0  0  0  0  0  0  0  0  0  0
    0.5955    1.0462   -0.2440 C   0  0  0  0  0  0  0  0  0  0  0  0
   -0.0222    2.1393    0.3780 C   0  0  0  0  0  0  0  0  0  0  0  0
   -1.3527    2.0314    0.7592 C   0  0  0  0  0  0  0  0  0  0  0  0
   -2.0831    0.8542    0.5637 C   0  0  0  0  0  0  0  0  0  0  0  0
   -3.4112    0.7375    0.8888 O   0  0  0  0  0  0  0  0  0  0  0  0
   -3.8210    1.3534    2.1145 C   0  0  0  0  0  0  0  0  0  0  0  0
   -4.7358    2.5442    1.8192 C   0  0  0  0  0  0  0  0  0  0  0  0
   -5.1100    3.2496    3.0044 O   0  0  0  0  0  0  0  0  0  0  0  0
   -6.1715    2.6252    3.7158 C   0  0  0  0  0  0  0  0  0  0  0  0
    0.6134    3.2893    0.6168 N   0  0  0  0  0  0  0  0  0  0  0  0
    1.8950    3.3570    0.2431 C   0  0  0  0  0  0  0  0  0  0  0  0
    2.5908    2.3921   -0.3635 N   0  0  0  0  0  0  0  0  0  0  0  0
    1.9417    1.2422   -0.6187 C   0  0  0  0  0  0  0  0  0  0  0  0
    2.6170    0.2008   -1.3158 N   0  0  0  0  0  0  0  0  0  0  0  0
    4.0048    0.0602   -1.5530 C   0  0  0  0  0  0  0  0  0  0  0  0
    4.4323   -0.7207   -2.6417 C   0  0  0  0  0  0  0  0  0  0  0  0
    5.7907   -0.9492   -2.8791 C   0  0  0  0  0  0  0  0  0  0  0  0
    6.7449   -0.4215   -2.0120 C   0  0  0  0  0  0  0  0  0  0  0  0
    6.3389    0.3252   -0.9042 C   0  0  0  0  0  0  0  0  0  0  0  0
    4.9772    0.5511   -0.6717 C   0  0  0  0  0  0  0  0  0  0  0  0
    7.3154    0.8538   -0.0000 C   0  0  0  0  0  0  0  0  0  0  0  0
    8.1341    1.3019    0.7568 C   0  0  0  0  0  0  0  0  0  0  0  0
   -4.8685   -4.7465    0.2372 H   0  0  0  0  0  0  0  0  0  0  0  0
   -3.6586   -6.0068   -0.1685 H   0  0  0  0  0  0  0  0  0  0  0  0
   -3.9749   -5.5792    1.5264 H   0  0  0  0  0  0  0  0  0  0  0  0
   -3.6816   -3.2412   -1.1740 H   0  0  0  0  0  0  0  0  0  0  0  0
   -2.3856   -4.4353   -1.5005 H   0  0  0  0  0  0  0  0  0  0  0  0
   -1.3519   -2.3076   -1.8063 H   0  0  0  0  0  0  0  0  0  0  0  0
   -0.8195   -2.8523   -0.1712 H   0  0  0  0  0  0  0  0  0  0  0  0
    0.3597   -0.9979   -0.9026 H   0  0  0  0  0  0  0  0  0  0  0  0
   -1.8188    2.9055    1.2064 H   0  0  0  0  0  0  0  0  0  0  0  0
   -4.3810    0.5953    2.6754 H   0  0  0  0  0  0  0  0  0  0  0  0
   -2.9864    1.6354    2.7702 H   0  0  0  0  0  0  0  0  0  0  0  0
   -5.6227    2.2323    1.2527 H   0  0  0  0  0  0  0  0  0  0  0  0
   -4.2082    3.2559    1.1739 H   0  0  0  0  0  0  0  0  0  0  0  0
   -7.0527    2.5134    3.0751 H   0  0  0  0  0  0  0  0  0  0  0  0
   -6.4419    3.2667    4.5631 H   0  0  0  0  0  0  0  0  0  0  0  0
   -5.8597    1.6507    4.1093 H   0  0  0  0  0  0  0  0  0  0  0  0
    2.4179    4.2850    0.4480 H   0  0  0  0  0  0  0  0  0  0  0  0
    2.0782   -0.0289   -2.1447 H   0  0  0  0  0  0  0  0  0  0  0  0
    3.7058   -1.1624   -3.3219 H   0  0  0  0  0  0  0  0  0  0  0  0
    6.1020   -1.5456   -3.7343 H   0  0  0  0  0  0  0  0  0  0  0  0
    7.8002   -0.6038   -2.1969 H   0  0  0  0  0  0  0  0  0  0  0  0
    4.6797    1.1115    0.2125 H   0  0  0  0  0  0  0  0  0  0  0  0
    8.8572    1.7018    1.4298 H   0  0  0  0  0  0  0  0  0  0  0  0
  1  2  1  0
  2  3  1  0
  3  4  1  0
  4  5  1  0
  5  6  1  0
  6  7  2  0
  7  8  1  0
  8  9  2  0
  9 10  1  0
 10 11  2  0
 11 12  1  0
 12 13  1  0
 13 14  1  0
 14 15  1  0
 15 16  1  0
  9 17  1  0
 17 18  2  0
 18 19  1  0
 19 20  2  0
 20 21  1  0
 21 22  1  0
 22 23  2  0
 23 24  1  0
 24 25  2  0
 25 26  1  0
 26 27  2  0
 26 28  1  0
 28 29  3  0
 11  6  1  0
 20  8  1  0
 27 22  1  0
  1 30  1  0
  1 31  1  0
  1 32  1  0
  3 33  1  0
  3 34  1  0
  4 35  1  0
  4 36  1  0
  7 37  1  0
 10 38  1  0
 13 39  1  0
 13 40  1  0
 14 41  1  0
 14 42  1  0
 16 43  1  0
 16 44  1  0
 16 45  1  0
 18 46  1  0
 21 47  1  0
 23 48  1  0
 24 49  1  0
 25 50  1  0
 27 51  1  0
 29 52  1  0
M  END
>  <energy_abs>  (109) 
61.30730666766814

>  <SMILES>  (109) 
COCCOc1cc2c(cc1OCCOC)ncnc2Nc3cccc(c3)C#C

>  <cluster_no>  (109) 
109

>  <fda_drugs_id>  (109) 
AAKJLRGGTJKAMG-UHFFFAOYSA-N

>  <initial_conformation_id>  (109) 
191

>  <minimize_method>  (109) 
MMFF

$$$$

     RDKit          3D

 52 54  0  0  0  0  0  0  0  0999 V2000
   -2.2300   -5.3657    0.9225 C   0  0  0  0  0  0  0  0  0  0  0  0
   -2.4785   -4.8386   -0.3734 O   0  0  0  0  0  0  0  0  0  0  0  0
   -2.9811   -3.5026   -0.3390 C   0  0  0  0  0  0  0  0  0  0  0  0
   -1.8535   -2.4727   -0.2850 C   0  0  0  0  0  0  0  0  0  0  0  0
   -2.4339   -1.1665   -0.2599 O   0  0  0  0  0  0  0  0  0  0  0  0
   -1.5823   -0.1744    0.1427 C   0  0  0  0  0  0  0  0  0  0  0  0
   -0.2643   -0.0664   -0.2968 C   0  0  0  0  0  0  0  0  0  0  0  0
    0.5606    1.0120    0.1283 C   0  0  0  0  0  0  0  0  0  0  0  0
    0.0476    1.9662    1.0225 C   0  0  0  0  0  0  0  0  0  0  0  0
   -1.2709    1.8532    1.4353 C   0  0  0  0  0  0  0  0  0  0  0  0
   -2.0867    0.8144    0.9838 C   0  0  0  0  0  0  0  0  0  0  0  0
   -3.3729    0.7570    1.4497 O   0  0  0  0  0  0  0  0  0  0  0  0
   -4.2739    1.3947    0.5288 C   0  0  0  0  0  0  0  0  0  0  0  0
   -5.3381    2.1403    1.3315 C   0  0  0  0  0  0  0  0  0  0  0  0
   -4.7454    3.3013    1.9317 O   0  0  0  0  0  0  0  0  0  0  0  0
   -5.6581    3.9813    2.7846 C   0  0  0  0  0  0  0  0  0  0  0  0
    0.7735    2.9879    1.4842 N   0  0  0  0  0  0  0  0  0  0  0  0
    2.0365    3.0693    1.0528 C   0  0  0  0  0  0  0  0  0  0  0  0
    2.6327    2.2388    0.1903 N   0  0  0  0  0  0  0  0  0  0  0  0
    1.8951    1.2197   -0.2814 C   0  0  0  0  0  0  0  0  0  0  0  0
    2.4603    0.3386   -1.2446 N   0  0  0  0  0  0  0  0  0  0  0  0
    3.8147    0.2077   -1.6308 C   0  0  0  0  0  0  0  0  0  0  0  0
    4.1106   -0.3396   -2.8914 C   0  0  0  0  0  0  0  0  0  0  0  0
    5.4309   -0.5518   -3.2965 C   0  0  0  0  0  0  0  0  0  0  0  0
    6.4803   -0.2403   -2.4354 C   0  0  0  0  0  0  0  0  0  0  0  0
    6.2063    0.2704   -1.1657 C   0  0  0  0  0  0  0  0  0  0  0  0
    4.8814    0.4738   -0.7630 C   0  0  0  0  0  0  0  0  0  0  0  0
    7.2807    0.5848   -0.2727 C   0  0  0  0  0  0  0  0  0  0  0  0
    8.1770    0.8619    0.4762 C   0  0  0  0  0  0  0  0  0  0  0  0
   -1.8318   -6.3787    0.8085 H   0  0  0  0  0  0  0  0  0  0  0  0
   -3.1593   -5.4210    1.4934 H   0  0  0  0  0  0  0  0  0  0  0  0
   -1.4944   -4.7624    1.4596 H   0  0  0  0  0  0  0  0  0  0  0  0
   -3.5545   -3.3477   -1.2592 H   0  0  0  0  0  0  0  0  0  0  0  0
   -3.6881   -3.3642    0.4871 H   0  0  0  0  0  0  0  0  0  0  0  0
   -1.2348   -2.6411    0.6035 H   0  0  0  0  0  0  0  0  0  0  0  0
   -1.2232   -2.5930   -1.1727 H   0  0  0  0  0  0  0  0  0  0  0  0
    0.1421   -0.8137   -0.9740 H   0  0  0  0  0  0  0  0  0  0  0  0
   -1.6847    2.5976    2.1093 H   0  0  0  0  0  0  0  0  0  0  0  0
   -3.7568    2.0990   -0.1368 H   0  0  0  0  0  0  0  0  0  0  0  0
   -4.7485    0.6105   -0.0749 H   0  0  0  0  0  0  0  0  0  0  0  0
   -6.1497    2.4620    0.6652 H   0  0  0  0  0  0  0  0  0  0  0  0
   -5.7404    1.4895    2.1178 H   0  0  0  0  0  0  0  0  0  0  0  0
   -5.9864    3.3227    3.5940 H   0  0  0  0  0  0  0  0  0  0  0  0
   -5.1456    4.8425    3.2238 H   0  0  0  0  0  0  0  0  0  0  0  0
   -6.5183    4.3399    2.2124 H   0  0  0  0  0  0  0  0  0  0  0  0
    2.6317    3.8916    1.4341 H   0  0  0  0  0  0  0  0  0  0  0  0
    1.8471    0.3085   -2.0529 H   0  0  0  0  0  0  0  0  0  0  0  0
    3.3097   -0.6040   -3.5791 H   0  0  0  0  0  0  0  0  0  0  0  0
    5.6394   -0.9667   -4.2794 H   0  0  0  0  0  0  0  0  0  0  0  0
    7.5064   -0.4045   -2.7539 H   0  0  0  0  0  0  0  0  0  0  0  0
    4.6895    0.8405    0.2422 H   0  0  0  0  0  0  0  0  0  0  0  0
    8.9626    1.1382    1.1357 H   0  0  0  0  0  0  0  0  0  0  0  0
  1  2  1  0
  2  3  1  0
  3  4  1  0
  4  5  1  0
  5  6  1  0
  6  7  2  0
  7  8  1  0
  8  9  2  0
  9 10  1  0
 10 11  2  0
 11 12  1  0
 12 13  1  0
 13 14  1  0
 14 15  1  0
 15 16  1  0
  9 17  1  0
 17 18  2  0
 18 19  1  0
 19 20  2  0
 20 21  1  0
 21 22  1  0
 22 23  2  0
 23 24  1  0
 24 25  2  0
 25 26  1  0
 26 27  2  0
 26 28  1  0
 28 29  3  0
 11  6  1  0
 20  8  1  0
 27 22  1  0
  1 30  1  0
  1 31  1  0
  1 32  1  0
  3 33  1  0
  3 34  1  0
  4 35  1  0
  4 36  1  0
  7 37  1  0
 10 38  1  0
 13 39  1  0
 13 40  1  0
 14 41  1  0
 14 42  1  0
 16 43  1  0
 16 44  1  0
 16 45  1  0
 18 46  1  0
 21 47  1  0
 23 48  1  0
 24 49  1  0
 25 50  1  0
 27 51  1  0
 29 52  1  0
M  END
>  <energy_abs>  (110) 
59.23829134771199

>  <SMILES>  (110) 
COCCOc1cc2c(cc1OCCOC)ncnc2Nc3cccc(c3)C#C

>  <cluster_no>  (110) 
110

>  <fda_drugs_id>  (110) 
AAKJLRGGTJKAMG-UHFFFAOYSA-N

>  <initial_conformation_id>  (110) 
190

>  <minimize_method>  (110) 
MMFF

$$$$

     RDKit          3D

 52 54  0  0  0  0  0  0  0  0999 V2000
   -1.9411   -5.3257   -1.6595 C   0  0  0  0  0  0  0  0  0  0  0  0
   -1.0418   -4.4929   -0.9385 O   0  0  0  0  0  0  0  0  0  0  0  0
   -1.7051   -3.4958   -0.1607 C   0  0  0  0  0  0  0  0  0  0  0  0
   -2.1815   -2.3187   -1.0130 C   0  0  0  0  0  0  0  0  0  0  0  0
   -2.6546   -1.2492   -0.1973 O   0  0  0  0  0  0  0  0  0  0  0  0
   -1.7733   -0.2943    0.2393 C   0  0  0  0  0  0  0  0  0  0  0  0
   -0.3905   -0.3377    0.0539 C   0  0  0  0  0  0  0  0  0  0  0  0
    0.4496    0.6924    0.5503 C   0  0  0  0  0  0  0  0  0  0  0  0
   -0.1227    1.7788    1.2210 C   0  0  0  0  0  0  0  0  0  0  0  0
   -1.4991    1.8082    1.4046 C   0  0  0  0  0  0  0  0  0  0  0  0
   -2.3342    0.7897    0.9336 C   0  0  0  0  0  0  0  0  0  0  0  0
   -3.6976    0.7620    1.0833 O   0  0  0  0  0  0  0  0  0  0  0  0
   -4.3450    1.7941    1.8250 C   0  0  0  0  0  0  0  0  0  0  0  0
   -4.6804    2.9917    0.9353 C   0  0  0  0  0  0  0  0  0  0  0  0
   -5.3407    4.0272    1.6640 O   0  0  0  0  0  0  0  0  0  0  0  0
   -4.4365    4.8865    2.3462 C   0  0  0  0  0  0  0  0  0  0  0  0
    0.5984    2.7969    1.6965 N   0  0  0  0  0  0  0  0  0  0  0  0
    1.9195    2.7411    1.4986 C   0  0  0  0  0  0  0  0  0  0  0  0
    2.5824    1.7599    0.8834 N   0  0  0  0  0  0  0  0  0  0  0  0
    1.8536    0.7309    0.4167 C   0  0  0  0  0  0  0  0  0  0  0  0
    2.5109   -0.3589   -0.2169 N   0  0  0  0  0  0  0  0  0  0  0  0
    3.8388   -0.4288   -0.6978 C   0  0  0  0  0  0  0  0  0  0  0  0
    4.4408   -1.6894   -0.8440 C   0  0  0  0  0  0  0  0  0  0  0  0
    5.7268   -1.8197   -1.3754 C   0  0  0  0  0  0  0  0  0  0  0  0
    6.4234   -0.6889   -1.7946 C   0  0  0  0  0  0  0  0  0  0  0  0
    5.8279    0.5680   -1.6936 C   0  0  0  0  0  0  0  0  0  0  0  0
    4.5396    0.6922   -1.1606 C   0  0  0  0  0  0  0  0  0  0  0  0
    6.5310    1.7298   -2.1456 C   0  0  0  0  0  0  0  0  0  0  0  0
    7.1202    2.7050   -2.5248 C   0  0  0  0  0  0  0  0  0  0  0  0
   -1.3569   -6.0952   -2.1717 H   0  0  0  0  0  0  0  0  0  0  0  0
   -2.6414   -5.8180   -0.9780 H   0  0  0  0  0  0  0  0  0  0  0  0
   -2.4862   -4.7508   -2.4128 H   0  0  0  0  0  0  0  0  0  0  0  0
   -2.5360   -3.9319    0.4075 H   0  0  0  0  0  0  0  0  0  0  0  0
   -0.9849   -3.1479    0.5869 H   0  0  0  0  0  0  0  0  0  0  0  0
   -3.0364   -2.6452   -1.6164 H   0  0  0  0  0  0  0  0  0  0  0  0
   -1.4334   -1.9962   -1.7468 H   0  0  0  0  0  0  0  0  0  0  0  0
    0.0692   -1.1602   -0.4838 H   0  0  0  0  0  0  0  0  0  0  0  0
   -1.8986    2.6690    1.9300 H   0  0  0  0  0  0  0  0  0  0  0  0
   -3.7932    2.0641    2.7318 H   0  0  0  0  0  0  0  0  0  0  0  0
   -5.2871    1.3727    2.1971 H   0  0  0  0  0  0  0  0  0  0  0  0
   -5.3651    2.6603    0.1461 H   0  0  0  0  0  0  0  0  0  0  0  0
   -3.7974    3.3842    0.4179 H   0  0  0  0  0  0  0  0  0  0  0  0
   -3.7648    5.3775    1.6355 H   0  0  0  0  0  0  0  0  0  0  0  0
   -5.0185    5.6557    2.8611 H   0  0  0  0  0  0  0  0  0  0  0  0
   -3.8575    4.3348    3.0916 H   0  0  0  0  0  0  0  0  0  0  0  0
    2.5092    3.5695    1.8758 H   0  0  0  0  0  0  0  0  0  0  0  0
    2.2434   -1.2200    0.2491 H   0  0  0  0  0  0  0  0  0  0  0  0
    3.9124   -2.5899   -0.5405 H   0  0  0  0  0  0  0  0  0  0  0  0
    6.1803   -2.8030   -1.4678 H   0  0  0  0  0  0  0  0  0  0  0  0
    7.4228   -0.7936   -2.2093 H   0  0  0  0  0  0  0  0  0  0  0  0
    4.0826    1.6771   -1.1161 H   0  0  0  0  0  0  0  0  0  0  0  0
    7.6409    3.5713   -2.8601 H   0  0  0  0  0  0  0  0  0  0  0  0
  1  2  1  0
  2  3  1  0
  3  4  1  0
  4  5  1  0
  5  6  1  0
  6  7  2  0
  7  8  1  0
  8  9  2  0
  9 10  1  0
 10 11  2  0
 11 12  1  0
 12 13  1  0
 13 14  1  0
 14 15  1  0
 15 16  1  0
  9 17  1  0
 17 18  2  0
 18 19  1  0
 19 20  2  0
 20 21  1  0
 21 22  1  0
 22 23  2  0
 23 24  1  0
 24 25  2  0
 25 26  1  0
 26 27  2  0
 26 28  1  0
 28 29  3  0
 11  6  1  0
 20  8  1  0
 27 22  1  0
  1 30  1  0
  1 31  1  0
  1 32  1  0
  3 33  1  0
  3 34  1  0
  4 35  1  0
  4 36  1  0
  7 37  1  0
 10 38  1  0
 13 39  1  0
 13 40  1  0
 14 41  1  0
 14 42  1  0
 16 43  1  0
 16 44  1  0
 16 45  1  0
 18 46  1  0
 21 47  1  0
 23 48  1  0
 24 49  1  0
 25 50  1  0
 27 51  1  0
 29 52  1  0
M  END
>  <energy_abs>  (111) 
61.85049853624665

>  <SMILES>  (111) 
COCCOc1cc2c(cc1OCCOC)ncnc2Nc3cccc(c3)C#C

>  <cluster_no>  (111) 
111

>  <fda_drugs_id>  (111) 
AAKJLRGGTJKAMG-UHFFFAOYSA-N

>  <initial_conformation_id>  (111) 
189

>  <minimize_method>  (111) 
MMFF

$$$$

     RDKit          3D

 52 54  0  0  0  0  0  0  0  0999 V2000
   -2.4197   -3.9319   -2.7749 C   0  0  0  0  0  0  0  0  0  0  0  0
   -2.2584   -4.2257   -1.3932 O   0  0  0  0  0  0  0  0  0  0  0  0
   -2.6977   -3.1626   -0.5463 C   0  0  0  0  0  0  0  0  0  0  0  0
   -1.6087   -2.1092   -0.3471 C   0  0  0  0  0  0  0  0  0  0  0  0
   -2.1078   -1.1055    0.5336 O   0  0  0  0  0  0  0  0  0  0  0  0
   -1.3444    0.0166    0.7226 C   0  0  0  0  0  0  0  0  0  0  0  0
    0.0029    0.1233    0.3750 C   0  0  0  0  0  0  0  0  0  0  0  0
    0.7290    1.3174    0.6202 C   0  0  0  0  0  0  0  0  0  0  0  0
    0.0767    2.4084    1.2068 C   0  0  0  0  0  0  0  0  0  0  0  0
   -1.2620    2.2852    1.5566 C   0  0  0  0  0  0  0  0  0  0  0  0
   -1.9830    1.1082    1.3296 C   0  0  0  0  0  0  0  0  0  0  0  0
   -3.3053    0.9297    1.6488 O   0  0  0  0  0  0  0  0  0  0  0  0
   -4.0007    2.0136    2.2679 C   0  0  0  0  0  0  0  0  0  0  0  0
   -5.4476    1.5867    2.5375 C   0  0  0  0  0  0  0  0  0  0  0  0
   -6.2114    1.3768    1.3454 O   0  0  0  0  0  0  0  0  0  0  0  0
   -6.6135    2.5790    0.7060 C   0  0  0  0  0  0  0  0  0  0  0  0
    0.6878    3.5708    1.4483 N   0  0  0  0  0  0  0  0  0  0  0  0
    1.9738    3.6591    1.0940 C   0  0  0  0  0  0  0  0  0  0  0  0
    2.7051    2.6926    0.5353 N   0  0  0  0  0  0  0  0  0  0  0  0
    2.0901    1.5183    0.3084 C   0  0  0  0  0  0  0  0  0  0  0  0
    2.8320    0.4371   -0.2423 N   0  0  0  0  0  0  0  0  0  0  0  0
    4.0977    0.4691   -0.8719 C   0  0  0  0  0  0  0  0  0  0  0  0
    4.5627    1.5832   -1.5813 C   0  0  0  0  0  0  0  0  0  0  0  0
    5.7892    1.5533   -2.2519 C   0  0  0  0  0  0  0  0  0  0  0  0
    6.5607    0.3936   -2.2449 C   0  0  0  0  0  0  0  0  0  0  0  0
    6.0984   -0.7391   -1.5771 C   0  0  0  0  0  0  0  0  0  0  0  0
    4.8701   -0.7034   -0.9071 C   0  0  0  0  0  0  0  0  0  0  0  0
    6.8756   -1.9408   -1.5822 C   0  0  0  0  0  0  0  0  0  0  0  0
    7.5276   -2.9492   -1.5865 C   0  0  0  0  0  0  0  0  0  0  0  0
   -3.4737   -3.7534   -3.0082 H   0  0  0  0  0  0  0  0  0  0  0  0
   -2.0796   -4.7974   -3.3500 H   0  0  0  0  0  0  0  0  0  0  0  0
   -1.8173   -3.0669   -3.0650 H   0  0  0  0  0  0  0  0  0  0  0  0
   -2.9473   -3.6020    0.4264 H   0  0  0  0  0  0  0  0  0  0  0  0
   -3.6251   -2.7133   -0.9227 H   0  0  0  0  0  0  0  0  0  0  0  0
   -1.3355   -1.6698   -1.3134 H   0  0  0  0  0  0  0  0  0  0  0  0
   -0.7231   -2.5922    0.0830 H   0  0  0  0  0  0  0  0  0  0  0  0
    0.5140   -0.7091   -0.0971 H   0  0  0  0  0  0  0  0  0  0  0  0
   -1.7293    3.1509    2.0151 H   0  0  0  0  0  0  0  0  0  0  0  0
   -3.9788    2.8900    1.6129 H   0  0  0  0  0  0  0  0  0  0  0  0
   -3.5260    2.2503    3.2273 H   0  0  0  0  0  0  0  0  0  0  0  0
   -5.9552    2.3213    3.1730 H   0  0  0  0  0  0  0  0  0  0  0  0
   -5.4450    0.6299    3.0709 H   0  0  0  0  0  0  0  0  0  0  0  0
   -7.2720    2.3179   -0.1271 H   0  0  0  0  0  0  0  0  0  0  0  0
   -5.7516    3.1157    0.3018 H   0  0  0  0  0  0  0  0  0  0  0  0
   -7.1687    3.2196    1.3978 H   0  0  0  0  0  0  0  0  0  0  0  0
    2.4714    4.6045    1.2809 H   0  0  0  0  0  0  0  0  0  0  0  0
    2.7516   -0.3606    0.3803 H   0  0  0  0  0  0  0  0  0  0  0  0
    3.9704    2.4934   -1.6266 H   0  0  0  0  0  0  0  0  0  0  0  0
    6.1349    2.4352   -2.7846 H   0  0  0  0  0  0  0  0  0  0  0  0
    7.5126    0.3766   -2.7695 H   0  0  0  0  0  0  0  0  0  0  0  0
    4.5188   -1.6016   -0.4053 H   0  0  0  0  0  0  0  0  0  0  0  0
    8.1071   -3.8428   -1.5910 H   0  0  0  0  0  0  0  0  0  0  0  0
  1  2  1  0
  2  3  1  0
  3  4  1  0
  4  5  1  0
  5  6  1  0
  6  7  2  0
  7  8  1  0
  8  9  2  0
  9 10  1  0
 10 11  2  0
 11 12  1  0
 12 13  1  0
 13 14  1  0
 14 15  1  0
 15 16  1  0
  9 17  1  0
 17 18  2  0
 18 19  1  0
 19 20  2  0
 20 21  1  0
 21 22  1  0
 22 23  2  0
 23 24  1  0
 24 25  2  0
 25 26  1  0
 26 27  2  0
 26 28  1  0
 28 29  3  0
 11  6  1  0
 20  8  1  0
 27 22  1  0
  1 30  1  0
  1 31  1  0
  1 32  1  0
  3 33  1  0
  3 34  1  0
  4 35  1  0
  4 36  1  0
  7 37  1  0
 10 38  1  0
 13 39  1  0
 13 40  1  0
 14 41  1  0
 14 42  1  0
 16 43  1  0
 16 44  1  0
 16 45  1  0
 18 46  1  0
 21 47  1  0
 23 48  1  0
 24 49  1  0
 25 50  1  0
 27 51  1  0
 29 52  1  0
M  END
>  <energy_abs>  (112) 
60.781657099346674

>  <SMILES>  (112) 
COCCOc1cc2c(cc1OCCOC)ncnc2Nc3cccc(c3)C#C

>  <cluster_no>  (112) 
112

>  <fda_drugs_id>  (112) 
AAKJLRGGTJKAMG-UHFFFAOYSA-N

>  <initial_conformation_id>  (112) 
188

>  <minimize_method>  (112) 
MMFF

$$$$

     RDKit          3D

 52 54  0  0  0  0  0  0  0  0999 V2000
   -4.6766   -3.0419   -0.5501 C   0  0  0  0  0  0  0  0  0  0  0  0
   -3.9362   -1.9779   -1.1272 O   0  0  0  0  0  0  0  0  0  0  0  0
   -2.5510   -2.2671   -1.3214 C   0  0  0  0  0  0  0  0  0  0  0  0
   -1.7651   -2.6102   -0.0464 C   0  0  0  0  0  0  0  0  0  0  0  0
   -1.8905   -1.6334    0.9975 O   0  0  0  0  0  0  0  0  0  0  0  0
   -1.2765   -0.4424    0.7112 C   0  0  0  0  0  0  0  0  0  0  0  0
    0.1092   -0.3654    0.5951 C   0  0  0  0  0  0  0  0  0  0  0  0
    0.7364    0.8721    0.3172 C   0  0  0  0  0  0  0  0  0  0  0  0
   -0.0511    2.0216    0.1638 C   0  0  0  0  0  0  0  0  0  0  0  0
   -1.4303    1.9250    0.3208 C   0  0  0  0  0  0  0  0  0  0  0  0
   -2.0588    0.7096    0.5981 C   0  0  0  0  0  0  0  0  0  0  0  0
   -3.4008    0.5449    0.7988 O   0  0  0  0  0  0  0  0  0  0  0  0
   -4.3056    1.5253    0.2842 C   0  0  0  0  0  0  0  0  0  0  0  0
   -4.6898    2.5409    1.3640 C   0  0  0  0  0  0  0  0  0  0  0  0
   -5.6936    2.0621    2.2689 O   0  0  0  0  0  0  0  0  0  0  0  0
   -5.2367    1.0260    3.1261 C   0  0  0  0  0  0  0  0  0  0  0  0
    0.4700    3.2172   -0.1200 N   0  0  0  0  0  0  0  0  0  0  0  0
    1.7982    3.2764   -0.2642 C   0  0  0  0  0  0  0  0  0  0  0  0
    2.6516    2.2581   -0.1344 N   0  0  0  0  0  0  0  0  0  0  0  0
    2.1256    1.0589    0.1691 C   0  0  0  0  0  0  0  0  0  0  0  0
    2.9896   -0.0536    0.3679 N   0  0  0  0  0  0  0  0  0  0  0  0
    4.3546   -0.1752    0.0195 C   0  0  0  0  0  0  0  0  0  0  0  0
    5.1559   -1.0908    0.7213 C   0  0  0  0  0  0  0  0  0  0  0  0
    6.4935   -1.2957    0.3719 C   0  0  0  0  0  0  0  0  0  0  0  0
    7.0446   -0.6061   -0.7059 C   0  0  0  0  0  0  0  0  0  0  0  0
    6.2542    0.2784   -1.4396 C   0  0  0  0  0  0  0  0  0  0  0  0
    4.9156    0.4812   -1.0839 C   0  0  0  0  0  0  0  0  0  0  0  0
    6.8090    0.9688   -2.5642 C   0  0  0  0  0  0  0  0  0  0  0  0
    7.2732    1.5477   -3.5087 C   0  0  0  0  0  0  0  0  0  0  0  0
   -5.7390   -2.7943   -0.6208 H   0  0  0  0  0  0  0  0  0  0  0  0
   -4.4993   -3.9803   -1.0852 H   0  0  0  0  0  0  0  0  0  0  0  0
   -4.4282   -3.1549    0.5084 H   0  0  0  0  0  0  0  0  0  0  0  0
   -2.4592   -3.0829   -2.0461 H   0  0  0  0  0  0  0  0  0  0  0  0
   -2.1171   -1.3775   -1.7916 H   0  0  0  0  0  0  0  0  0  0  0  0
   -2.1461   -3.5469    0.3736 H   0  0  0  0  0  0  0  0  0  0  0  0
   -0.7111   -2.7960   -0.2864 H   0  0  0  0  0  0  0  0  0  0  0  0
    0.7029   -1.2658    0.7188 H   0  0  0  0  0  0  0  0  0  0  0  0
   -2.0019    2.8428    0.2305 H   0  0  0  0  0  0  0  0  0  0  0  0
   -3.8996    2.0179   -0.6067 H   0  0  0  0  0  0  0  0  0  0  0  0
   -5.2010    0.9820   -0.0366 H   0  0  0  0  0  0  0  0  0  0  0  0
   -5.1256    3.4186    0.8750 H   0  0  0  0  0  0  0  0  0  0  0  0
   -3.8206    2.8768    1.9395 H   0  0  0  0  0  0  0  0  0  0  0  0
   -4.2808    1.2877    3.5878 H   0  0  0  0  0  0  0  0  0  0  0  0
   -5.9789    0.8906    3.9170 H   0  0  0  0  0  0  0  0  0  0  0  0
   -5.1548    0.0840    2.5801 H   0  0  0  0  0  0  0  0  0  0  0  0
    2.2233    4.2444   -0.5063 H   0  0  0  0  0  0  0  0  0  0  0  0
    2.8103   -0.4375    1.2905 H   0  0  0  0  0  0  0  0  0  0  0  0
    4.7468   -1.6539    1.5564 H   0  0  0  0  0  0  0  0  0  0  0  0
    7.1020   -1.9973    0.9365 H   0  0  0  0  0  0  0  0  0  0  0  0
    8.0852   -0.7691   -0.9761 H   0  0  0  0  0  0  0  0  0  0  0  0
    4.3085    1.1553   -1.6833 H   0  0  0  0  0  0  0  0  0  0  0  0
    7.6818    2.0618   -4.3473 H   0  0  0  0  0  0  0  0  0  0  0  0
  1  2  1  0
  2  3  1  0
  3  4  1  0
  4  5  1  0
  5  6  1  0
  6  7  2  0
  7  8  1  0
  8  9  2  0
  9 10  1  0
 10 11  2  0
 11 12  1  0
 12 13  1  0
 13 14  1  0
 14 15  1  0
 15 16  1  0
  9 17  1  0
 17 18  2  0
 18 19  1  0
 19 20  2  0
 20 21  1  0
 21 22  1  0
 22 23  2  0
 23 24  1  0
 24 25  2  0
 25 26  1  0
 26 27  2  0
 26 28  1  0
 28 29  3  0
 11  6  1  0
 20  8  1  0
 27 22  1  0
  1 30  1  0
  1 31  1  0
  1 32  1  0
  3 33  1  0
  3 34  1  0
  4 35  1  0
  4 36  1  0
  7 37  1  0
 10 38  1  0
 13 39  1  0
 13 40  1  0
 14 41  1  0
 14 42  1  0
 16 43  1  0
 16 44  1  0
 16 45  1  0
 18 46  1  0
 21 47  1  0
 23 48  1  0
 24 49  1  0
 25 50  1  0
 27 51  1  0
 29 52  1  0
M  END
>  <energy_abs>  (113) 
65.36910382758397

>  <SMILES>  (113) 
COCCOc1cc2c(cc1OCCOC)ncnc2Nc3cccc(c3)C#C

>  <cluster_no>  (113) 
113

>  <fda_drugs_id>  (113) 
AAKJLRGGTJKAMG-UHFFFAOYSA-N

>  <initial_conformation_id>  (113) 
187

>  <minimize_method>  (113) 
MMFF

$$$$

     RDKit          3D

 52 54  0  0  0  0  0  0  0  0999 V2000
   -2.8432   -5.3258   -2.5185 C   0  0  0  0  0  0  0  0  0  0  0  0
   -1.9344   -4.2987   -2.1432 O   0  0  0  0  0  0  0  0  0  0  0  0
   -2.6059   -3.2196   -1.4932 C   0  0  0  0  0  0  0  0  0  0  0  0
   -1.5872   -2.1514   -1.1086 C   0  0  0  0  0  0  0  0  0  0  0  0
   -2.2750   -1.0774   -0.4726 O   0  0  0  0  0  0  0  0  0  0  0  0
   -1.5432    0.0092   -0.0684 C   0  0  0  0  0  0  0  0  0  0  0  0
   -0.1594    0.1303   -0.2050 C   0  0  0  0  0  0  0  0  0  0  0  0
    0.5218    1.2915    0.2431 C   0  0  0  0  0  0  0  0  0  0  0  0
   -0.2062    2.3207    0.8510 C   0  0  0  0  0  0  0  0  0  0  0  0
   -1.5834    2.1886    0.9790 C   0  0  0  0  0  0  0  0  0  0  0  0
   -2.2666    1.0555    0.5258 C   0  0  0  0  0  0  0  0  0  0  0  0
   -3.6208    0.8622    0.6268 O   0  0  0  0  0  0  0  0  0  0  0  0
   -4.4440    1.9093    1.1358 C   0  0  0  0  0  0  0  0  0  0  0  0
   -4.5647    1.8313    2.6554 C   0  0  0  0  0  0  0  0  0  0  0  0
   -5.3927    2.8985    3.1171 O   0  0  0  0  0  0  0  0  0  0  0  0
   -5.5457    2.8663    4.5303 C   0  0  0  0  0  0  0  0  0  0  0  0
    0.3679    3.4312    1.3201 N   0  0  0  0  0  0  0  0  0  0  0  0
    1.6948    3.5244    1.1897 C   0  0  0  0  0  0  0  0  0  0  0  0
    2.4961    2.6182    0.6263 N   0  0  0  0  0  0  0  0  0  0  0  0
    1.9127    1.5072    0.1427 C   0  0  0  0  0  0  0  0  0  0  0  0
    2.7114    0.5264   -0.5073 N   0  0  0  0  0  0  0  0  0  0  0  0
    4.1187    0.3890   -0.4969 C   0  0  0  0  0  0  0  0  0  0  0  0
    4.9117    0.7970    0.5826 C   0  0  0  0  0  0  0  0  0  0  0  0
    6.2930    0.5807    0.5878 C   0  0  0  0  0  0  0  0  0  0  0  0
    6.9012   -0.0742   -0.4805 C   0  0  0  0  0  0  0  0  0  0  0  0
    6.1249   -0.5230   -1.5475 C   0  0  0  0  0  0  0  0  0  0  0  0
    4.7426   -0.3033   -1.5477 C   0  0  0  0  0  0  0  0  0  0  0  0
    6.7393   -1.2146   -2.6394 C   0  0  0  0  0  0  0  0  0  0  0  0
    7.2549   -1.7950   -3.5555 C   0  0  0  0  0  0  0  0  0  0  0  0
   -2.2783   -6.1225   -3.0099 H   0  0  0  0  0  0  0  0  0  0  0  0
   -3.3375   -5.7414   -1.6351 H   0  0  0  0  0  0  0  0  0  0  0  0
   -3.5878   -4.9403   -3.2215 H   0  0  0  0  0  0  0  0  0  0  0  0
   -3.1212   -3.5827   -0.5958 H   0  0  0  0  0  0  0  0  0  0  0  0
   -3.3614   -2.7900   -2.1621 H   0  0  0  0  0  0  0  0  0  0  0  0
   -1.0755   -1.8028   -2.0143 H   0  0  0  0  0  0  0  0  0  0  0  0
   -0.8456   -2.5917   -0.4306 H   0  0  0  0  0  0  0  0  0  0  0  0
    0.4222   -0.6756   -0.6403 H   0  0  0  0  0  0  0  0  0  0  0  0
   -2.1069    3.0101    1.4582 H   0  0  0  0  0  0  0  0  0  0  0  0
   -4.1377    2.9020    0.7853 H   0  0  0  0  0  0  0  0  0  0  0  0
   -5.4423    1.7640    0.7046 H   0  0  0  0  0  0  0  0  0  0  0  0
   -3.5778    1.8994    3.1263 H   0  0  0  0  0  0  0  0  0  0  0  0
   -5.0010    0.8665    2.9413 H   0  0  0  0  0  0  0  0  0  0  0  0
   -6.1867    3.7010    4.8262 H   0  0  0  0  0  0  0  0  0  0  0  0
   -6.0216    1.9319    4.8428 H   0  0  0  0  0  0  0  0  0  0  0  0
   -4.5752    2.9789    5.0232 H   0  0  0  0  0  0  0  0  0  0  0  0
    2.1648    4.4224    1.5757 H   0  0  0  0  0  0  0  0  0  0  0  0
    2.3332    0.3628   -1.4350 H   0  0  0  0  0  0  0  0  0  0  0  0
    4.4616    1.2868    1.4421 H   0  0  0  0  0  0  0  0  0  0  0  0
    6.8891    0.9184    1.4315 H   0  0  0  0  0  0  0  0  0  0  0  0
    7.9753   -0.2405   -0.4694 H   0  0  0  0  0  0  0  0  0  0  0  0
    4.1514   -0.6751   -2.3809 H   0  0  0  0  0  0  0  0  0  0  0  0
    7.7136   -2.3096   -4.3673 H   0  0  0  0  0  0  0  0  0  0  0  0
  1  2  1  0
  2  3  1  0
  3  4  1  0
  4  5  1  0
  5  6  1  0
  6  7  2  0
  7  8  1  0
  8  9  2  0
  9 10  1  0
 10 11  2  0
 11 12  1  0
 12 13  1  0
 13 14  1  0
 14 15  1  0
 15 16  1  0
  9 17  1  0
 17 18  2  0
 18 19  1  0
 19 20  2  0
 20 21  1  0
 21 22  1  0
 22 23  2  0
 23 24  1  0
 24 25  2  0
 25 26  1  0
 26 27  2  0
 26 28  1  0
 28 29  3  0
 11  6  1  0
 20  8  1  0
 27 22  1  0
  1 30  1  0
  1 31  1  0
  1 32  1  0
  3 33  1  0
  3 34  1  0
  4 35  1  0
  4 36  1  0
  7 37  1  0
 10 38  1  0
 13 39  1  0
 13 40  1  0
 14 41  1  0
 14 42  1  0
 16 43  1  0
 16 44  1  0
 16 45  1  0
 18 46  1  0
 21 47  1  0
 23 48  1  0
 24 49  1  0
 25 50  1  0
 27 51  1  0
 29 52  1  0
M  END
>  <energy_abs>  (114) 
56.67888280274565

>  <SMILES>  (114) 
COCCOc1cc2c(cc1OCCOC)ncnc2Nc3cccc(c3)C#C

>  <cluster_no>  (114) 
114

>  <fda_drugs_id>  (114) 
AAKJLRGGTJKAMG-UHFFFAOYSA-N

>  <initial_conformation_id>  (114) 
186

>  <minimize_method>  (114) 
MMFF

$$$$

     RDKit          3D

 52 54  0  0  0  0  0  0  0  0999 V2000
   -3.2093   -2.8275   -2.3779 C   0  0  0  0  0  0  0  0  0  0  0  0
   -2.2054   -3.7191   -1.9096 O   0  0  0  0  0  0  0  0  0  0  0  0
   -1.1192   -3.0616   -1.2486 C   0  0  0  0  0  0  0  0  0  0  0  0
   -1.5039   -2.4600    0.1063 C   0  0  0  0  0  0  0  0  0  0  0  0
   -2.1476   -1.1902   -0.0631 O   0  0  0  0  0  0  0  0  0  0  0  0
   -1.4214   -0.0717    0.2511 C   0  0  0  0  0  0  0  0  0  0  0  0
   -0.0577    0.0580   -0.0118 C   0  0  0  0  0  0  0  0  0  0  0  0
    0.6346    1.2545    0.3036 C   0  0  0  0  0  0  0  0  0  0  0  0
   -0.0645    2.3169    0.8889 C   0  0  0  0  0  0  0  0  0  0  0  0
   -1.4281    2.1809    1.1213 C   0  0  0  0  0  0  0  0  0  0  0  0
   -2.1210    1.0071    0.8073 C   0  0  0  0  0  0  0  0  0  0  0  0
   -3.4634    0.8134    1.0098 O   0  0  0  0  0  0  0  0  0  0  0  0
   -4.1933    1.8443    1.6727 C   0  0  0  0  0  0  0  0  0  0  0  0
   -5.6422    1.3846    1.8311 C   0  0  0  0  0  0  0  0  0  0  0  0
   -6.4539    2.3746    2.4640 O   0  0  0  0  0  0  0  0  0  0  0  0
   -6.3536    2.3507    3.8821 C   0  0  0  0  0  0  0  0  0  0  0  0
    0.5242    3.4651    1.2319 N   0  0  0  0  0  0  0  0  0  0  0  0
    1.8369    3.5621    0.9976 C   0  0  0  0  0  0  0  0  0  0  0  0
    2.6095    2.6260    0.4426 N   0  0  0  0  0  0  0  0  0  0  0  0
    2.0101    1.4772    0.0840 C   0  0  0  0  0  0  0  0  0  0  0  0
    2.7728    0.4599   -0.5539 N   0  0  0  0  0  0  0  0  0  0  0  0
    4.1789    0.3281   -0.6281 C   0  0  0  0  0  0  0  0  0  0  0  0
    5.0410    0.8277    0.3556 C   0  0  0  0  0  0  0  0  0  0  0  0
    6.4209    0.6131    0.2850 C   0  0  0  0  0  0  0  0  0  0  0  0
    6.9587   -0.1342   -0.7599 C   0  0  0  0  0  0  0  0  0  0  0  0
    6.1139   -0.6767   -1.7265 C   0  0  0  0  0  0  0  0  0  0  0  0
    4.7337   -0.4564   -1.6525 C   0  0  0  0  0  0  0  0  0  0  0  0
    6.6562   -1.4650   -2.7908 C   0  0  0  0  0  0  0  0  0  0  0  0
    7.1118   -2.1274   -3.6827 C   0  0  0  0  0  0  0  0  0  0  0  0
   -2.7702   -1.9943   -2.9343 H   0  0  0  0  0  0  0  0  0  0  0  0
   -3.8682   -3.3837   -3.0501 H   0  0  0  0  0  0  0  0  0  0  0  0
   -3.8129   -2.4577   -1.5451 H   0  0  0  0  0  0  0  0  0  0  0  0
   -0.6876   -2.3145   -1.9235 H   0  0  0  0  0  0  0  0  0  0  0  0
   -0.3632   -3.8356   -1.0798 H   0  0  0  0  0  0  0  0  0  0  0  0
   -2.2290   -3.1127    0.6055 H   0  0  0  0  0  0  0  0  0  0  0  0
   -0.6319   -2.3879    0.7670 H   0  0  0  0  0  0  0  0  0  0  0  0
    0.4889   -0.7632   -0.4632 H   0  0  0  0  0  0  0  0  0  0  0  0
   -1.9371    3.0338    1.5606 H   0  0  0  0  0  0  0  0  0  0  0  0
   -3.7580    2.0424    2.6588 H   0  0  0  0  0  0  0  0  0  0  0  0
   -4.1762    2.7709    1.0858 H   0  0  0  0  0  0  0  0  0  0  0  0
   -5.7006    0.4273    2.3643 H   0  0  0  0  0  0  0  0  0  0  0  0
   -6.0663    1.2025    0.8365 H   0  0  0  0  0  0  0  0  0  0  0  0
   -5.3364    2.5847    4.2075 H   0  0  0  0  0  0  0  0  0  0  0  0
   -7.0272    3.1123    4.2848 H   0  0  0  0  0  0  0  0  0  0  0  0
   -6.6599    1.3756    4.2726 H   0  0  0  0  0  0  0  0  0  0  0  0
    2.3196    4.4904    1.2828 H   0  0  0  0  0  0  0  0  0  0  0  0
    2.3391    0.2455   -1.4464 H   0  0  0  0  0  0  0  0  0  0  0  0
    4.6489    1.3912    1.1980 H   0  0  0  0  0  0  0  0  0  0  0  0
    7.0713    1.0242    1.0525 H   0  0  0  0  0  0  0  0  0  0  0  0
    8.0325   -0.2987   -0.8077 H   0  0  0  0  0  0  0  0  0  0  0  0
    4.0893   -0.9023   -2.4056 H   0  0  0  0  0  0  0  0  0  0  0  0
    7.5186   -2.7147   -4.4729 H   0  0  0  0  0  0  0  0  0  0  0  0
  1  2  1  0
  2  3  1  0
  3  4  1  0
  4  5  1  0
  5  6  1  0
  6  7  2  0
  7  8  1  0
  8  9  2  0
  9 10  1  0
 10 11  2  0
 11 12  1  0
 12 13  1  0
 13 14  1  0
 14 15  1  0
 15 16  1  0
  9 17  1  0
 17 18  2  0
 18 19  1  0
 19 20  2  0
 20 21  1  0
 21 22  1  0
 22 23  2  0
 23 24  1  0
 24 25  2  0
 25 26  1  0
 26 27  2  0
 26 28  1  0
 28 29  3  0
 11  6  1  0
 20  8  1  0
 27 22  1  0
  1 30  1  0
  1 31  1  0
  1 32  1  0
  3 33  1  0
  3 34  1  0
  4 35  1  0
  4 36  1  0
  7 37  1  0
 10 38  1  0
 13 39  1  0
 13 40  1  0
 14 41  1  0
 14 42  1  0
 16 43  1  0
 16 44  1  0
 16 45  1  0
 18 46  1  0
 21 47  1  0
 23 48  1  0
 24 49  1  0
 25 50  1  0
 27 51  1  0
 29 52  1  0
M  END
>  <energy_abs>  (115) 
61.03582110917931

>  <SMILES>  (115) 
COCCOc1cc2c(cc1OCCOC)ncnc2Nc3cccc(c3)C#C

>  <cluster_no>  (115) 
115

>  <fda_drugs_id>  (115) 
AAKJLRGGTJKAMG-UHFFFAOYSA-N

>  <initial_conformation_id>  (115) 
185

>  <minimize_method>  (115) 
MMFF

$$$$

     RDKit          3D

 52 54  0  0  0  0  0  0  0  0999 V2000
   -0.4978   -5.0238   -1.7845 C   0  0  0  0  0  0  0  0  0  0  0  0
   -0.9089   -3.7426   -2.2444 O   0  0  0  0  0  0  0  0  0  0  0  0
   -1.5211   -2.9828   -1.2029 C   0  0  0  0  0  0  0  0  0  0  0  0
   -2.0039   -1.6494   -1.7685 C   0  0  0  0  0  0  0  0  0  0  0  0
   -2.5537   -0.8206   -0.7474 O   0  0  0  0  0  0  0  0  0  0  0  0
   -1.7248   -0.0357    0.0111 C   0  0  0  0  0  0  0  0  0  0  0  0
   -0.3426    0.0639   -0.1546 C   0  0  0  0  0  0  0  0  0  0  0  0
    0.4383    0.9052    0.6802 C   0  0  0  0  0  0  0  0  0  0  0  0
   -0.1939    1.6619    1.6731 C   0  0  0  0  0  0  0  0  0  0  0  0
   -1.5697    1.5526    1.8305 C   0  0  0  0  0  0  0  0  0  0  0  0
   -2.3458    0.7147    1.0230 C   0  0  0  0  0  0  0  0  0  0  0  0
   -3.7049    0.5618    1.1291 O   0  0  0  0  0  0  0  0  0  0  0  0
   -4.4132    1.2463    2.1600 C   0  0  0  0  0  0  0  0  0  0  0  0
   -4.8249    2.6476    1.7167 C   0  0  0  0  0  0  0  0  0  0  0  0
   -5.5219    3.2923    2.7828 O   0  0  0  0  0  0  0  0  0  0  0  0
   -5.9423    4.6000    2.4156 C   0  0  0  0  0  0  0  0  0  0  0  0
    0.4703    2.4914    2.4813 N   0  0  0  0  0  0  0  0  0  0  0  0
    1.7915    2.5799    2.2996 C   0  0  0  0  0  0  0  0  0  0  0  0
    2.5082    1.9096    1.3953 N   0  0  0  0  0  0  0  0  0  0  0  0
    1.8377    1.0652    0.5917 C   0  0  0  0  0  0  0  0  0  0  0  0
    2.5548    0.2958   -0.3652 N   0  0  0  0  0  0  0  0  0  0  0  0
    3.8833    0.4660   -0.8184 C   0  0  0  0  0  0  0  0  0  0  0  0
    4.5182    1.7133   -0.8554 C   0  0  0  0  0  0  0  0  0  0  0  0
    5.8085    1.8530   -1.3757 C   0  0  0  0  0  0  0  0  0  0  0  0
    6.4760    0.7458   -1.8941 C   0  0  0  0  0  0  0  0  0  0  0  0
    5.8470   -0.4979   -1.9028 C   0  0  0  0  0  0  0  0  0  0  0  0
    4.5556   -0.6319   -1.3802 C   0  0  0  0  0  0  0  0  0  0  0  0
    6.5179   -1.6361   -2.4525 C   0  0  0  0  0  0  0  0  0  0  0  0
    7.0810   -2.5910   -2.9142 C   0  0  0  0  0  0  0  0  0  0  0  0
   -0.0360   -5.5574   -2.6194 H   0  0  0  0  0  0  0  0  0  0  0  0
   -1.3599   -5.6001   -1.4349 H   0  0  0  0  0  0  0  0  0  0  0  0
    0.2397   -4.9237   -0.9823 H   0  0  0  0  0  0  0  0  0  0  0  0
   -2.3721   -3.5324   -0.7824 H   0  0  0  0  0  0  0  0  0  0  0  0
   -0.7989   -2.8242   -0.3944 H   0  0  0  0  0  0  0  0  0  0  0  0
   -1.2400   -1.1381   -2.3655 H   0  0  0  0  0  0  0  0  0  0  0  0
   -2.8131   -1.8532   -2.4808 H   0  0  0  0  0  0  0  0  0  0  0  0
    0.1611   -0.4898   -0.9394 H   0  0  0  0  0  0  0  0  0  0  0  0
   -2.0180    2.1580    2.6123 H   0  0  0  0  0  0  0  0  0  0  0  0
   -5.3243    0.6671    2.3549 H   0  0  0  0  0  0  0  0  0  0  0  0
   -3.8794    1.2440    3.1177 H   0  0  0  0  0  0  0  0  0  0  0  0
   -5.4702    2.5796    0.8324 H   0  0  0  0  0  0  0  0  0  0  0  0
   -3.9462    3.2402    1.4392 H   0  0  0  0  0  0  0  0  0  0  0  0
   -5.0782    5.2259    2.1723 H   0  0  0  0  0  0  0  0  0  0  0  0
   -6.6288    4.5568    1.5647 H   0  0  0  0  0  0  0  0  0  0  0  0
   -6.4671    5.0441    3.2656 H   0  0  0  0  0  0  0  0  0  0  0  0
    2.3329    3.2583    2.9500 H   0  0  0  0  0  0  0  0  0  0  0  0
    2.3379   -0.6855   -0.2248 H   0  0  0  0  0  0  0  0  0  0  0  0
    4.0123    2.6002   -0.4831 H   0  0  0  0  0  0  0  0  0  0  0  0
    6.2853    2.8296   -1.3816 H   0  0  0  0  0  0  0  0  0  0  0  0
    7.4782    0.8619   -2.2988 H   0  0  0  0  0  0  0  0  0  0  0  0
    4.0746   -1.6064   -1.4115 H   0  0  0  0  0  0  0  0  0  0  0  0
    7.5823   -3.4364   -3.3245 H   0  0  0  0  0  0  0  0  0  0  0  0
  1  2  1  0
  2  3  1  0
  3  4  1  0
  4  5  1  0
  5  6  1  0
  6  7  2  0
  7  8  1  0
  8  9  2  0
  9 10  1  0
 10 11  2  0
 11 12  1  0
 12 13  1  0
 13 14  1  0
 14 15  1  0
 15 16  1  0
  9 17  1  0
 17 18  2  0
 18 19  1  0
 19 20  2  0
 20 21  1  0
 21 22  1  0
 22 23  2  0
 23 24  1  0
 24 25  2  0
 25 26  1  0
 26 27  2  0
 26 28  1  0
 28 29  3  0
 11  6  1  0
 20  8  1  0
 27 22  1  0
  1 30  1  0
  1 31  1  0
  1 32  1  0
  3 33  1  0
  3 34  1  0
  4 35  1  0
  4 36  1  0
  7 37  1  0
 10 38  1  0
 13 39  1  0
 13 40  1  0
 14 41  1  0
 14 42  1  0
 16 43  1  0
 16 44  1  0
 16 45  1  0
 18 46  1  0
 21 47  1  0
 23 48  1  0
 24 49  1  0
 25 50  1  0
 27 51  1  0
 29 52  1  0
M  END
>  <energy_abs>  (116) 
58.87794075898389

>  <SMILES>  (116) 
COCCOc1cc2c(cc1OCCOC)ncnc2Nc3cccc(c3)C#C

>  <cluster_no>  (116) 
116

>  <fda_drugs_id>  (116) 
AAKJLRGGTJKAMG-UHFFFAOYSA-N

>  <initial_conformation_id>  (116) 
184

>  <minimize_method>  (116) 
MMFF

$$$$

     RDKit          3D

 52 54  0  0  0  0  0  0  0  0999 V2000
   -3.7173   -4.6334   -1.1874 C   0  0  0  0  0  0  0  0  0  0  0  0
   -3.0496   -4.1153   -0.0434 O   0  0  0  0  0  0  0  0  0  0  0  0
   -3.1214   -2.6901    0.0410 C   0  0  0  0  0  0  0  0  0  0  0  0
   -2.0256   -2.0154   -0.7844 C   0  0  0  0  0  0  0  0  0  0  0  0
   -2.1943   -0.5907   -0.7883 O   0  0  0  0  0  0  0  0  0  0  0  0
   -1.4070    0.0131    0.1544 C   0  0  0  0  0  0  0  0  0  0  0  0
   -0.0507    0.2006   -0.0903 C   0  0  0  0  0  0  0  0  0  0  0  0
    0.7661    0.8581    0.8634 C   0  0  0  0  0  0  0  0  0  0  0  0
    0.1954    1.3159    2.0611 C   0  0  0  0  0  0  0  0  0  0  0  0
   -1.1671    1.1418    2.2689 C   0  0  0  0  0  0  0  0  0  0  0  0
   -1.9771    0.5238    1.3156 C   0  0  0  0  0  0  0  0  0  0  0  0
   -3.3138    0.3286    1.5324 O   0  0  0  0  0  0  0  0  0  0  0  0
   -4.0597    1.5502    1.6008 C   0  0  0  0  0  0  0  0  0  0  0  0
   -4.3074    2.1448    0.2112 C   0  0  0  0  0  0  0  0  0  0  0  0
   -5.1404    3.3030    0.2840 O   0  0  0  0  0  0  0  0  0  0  0  0
   -6.5249    2.9862    0.2076 C   0  0  0  0  0  0  0  0  0  0  0  0
    0.9098    1.9164    3.0140 N   0  0  0  0  0  0  0  0  0  0  0  0
    2.2190    2.0633    2.7821 C   0  0  0  0  0  0  0  0  0  0  0  0
    2.8747    1.6776    1.6861 N   0  0  0  0  0  0  0  0  0  0  0  0
    2.1498    1.0859    0.7210 C   0  0  0  0  0  0  0  0  0  0  0  0
    2.7885    0.6844   -0.4830 N   0  0  0  0  0  0  0  0  0  0  0  0
    4.1683    0.5403   -0.7453 C   0  0  0  0  0  0  0  0  0  0  0  0
    5.0926    0.1889    0.2448 C   0  0  0  0  0  0  0  0  0  0  0  0
    6.4403   -0.0170   -0.0656 C   0  0  0  0  0  0  0  0  0  0  0  0
    6.8807    0.1038   -1.3822 C   0  0  0  0  0  0  0  0  0  0  0  0
    5.9705    0.4215   -2.3882 C   0  0  0  0  0  0  0  0  0  0  0  0
    4.6233    0.6267   -2.0717 C   0  0  0  0  0  0  0  0  0  0  0  0
    6.4118    0.5279   -3.7457 C   0  0  0  0  0  0  0  0  0  0  0  0
    6.7842    0.6135   -4.8835 C   0  0  0  0  0  0  0  0  0  0  0  0
   -3.2679   -4.2584   -2.1098 H   0  0  0  0  0  0  0  0  0  0  0  0
   -3.6200   -5.7227   -1.1764 H   0  0  0  0  0  0  0  0  0  0  0  0
   -4.7777   -4.3820   -1.1555 H   0  0  0  0  0  0  0  0  0  0  0  0
   -2.9848   -2.4295    1.0968 H   0  0  0  0  0  0  0  0  0  0  0  0
   -4.1192   -2.3270   -0.2332 H   0  0  0  0  0  0  0  0  0  0  0  0
   -1.0363   -2.3318   -0.4319 H   0  0  0  0  0  0  0  0  0  0  0  0
   -2.0834   -2.3415   -1.8275 H   0  0  0  0  0  0  0  0  0  0  0  0
    0.3730   -0.1796   -1.0155 H   0  0  0  0  0  0  0  0  0  0  0  0
   -1.5981    1.4883    3.2045 H   0  0  0  0  0  0  0  0  0  0  0  0
   -5.0196    1.3020    2.0640 H   0  0  0  0  0  0  0  0  0  0  0  0
   -3.6005    2.2867    2.2696 H   0  0  0  0  0  0  0  0  0  0  0  0
   -3.3526    2.4679   -0.2265 H   0  0  0  0  0  0  0  0  0  0  0  0
   -4.7228    1.3926   -0.4770 H   0  0  0  0  0  0  0  0  0  0  0  0
   -6.8176    2.2964    1.0041 H   0  0  0  0  0  0  0  0  0  0  0  0
   -6.7593    2.5565   -0.7710 H   0  0  0  0  0  0  0  0  0  0  0  0
   -7.0940    3.9119    0.3261 H   0  0  0  0  0  0  0  0  0  0  0  0
    2.8047    2.5438    3.5572 H   0  0  0  0  0  0  0  0  0  0  0  0
    2.2966    1.0931   -1.2717 H   0  0  0  0  0  0  0  0  0  0  0  0
    4.7730    0.0605    1.2757 H   0  0  0  0  0  0  0  0  0  0  0  0
    7.1404   -0.2820    0.7206 H   0  0  0  0  0  0  0  0  0  0  0  0
    7.9289   -0.0626   -1.6173 H   0  0  0  0  0  0  0  0  0  0  0  0
    3.9259    0.8603   -2.8710 H   0  0  0  0  0  0  0  0  0  0  0  0
    7.1189    0.6857   -5.8911 H   0  0  0  0  0  0  0  0  0  0  0  0
  1  2  1  0
  2  3  1  0
  3  4  1  0
  4  5  1  0
  5  6  1  0
  6  7  2  0
  7  8  1  0
  8  9  2  0
  9 10  1  0
 10 11  2  0
 11 12  1  0
 12 13  1  0
 13 14  1  0
 14 15  1  0
 15 16  1  0
  9 17  1  0
 17 18  2  0
 18 19  1  0
 19 20  2  0
 20 21  1  0
 21 22  1  0
 22 23  2  0
 23 24  1  0
 24 25  2  0
 25 26  1  0
 26 27  2  0
 26 28  1  0
 28 29  3  0
 11  6  1  0
 20  8  1  0
 27 22  1  0
  1 30  1  0
  1 31  1  0
  1 32  1  0
  3 33  1  0
  3 34  1  0
  4 35  1  0
  4 36  1  0
  7 37  1  0
 10 38  1  0
 13 39  1  0
 13 40  1  0
 14 41  1  0
 14 42  1  0
 16 43  1  0
 16 44  1  0
 16 45  1  0
 18 46  1  0
 21 47  1  0
 23 48  1  0
 24 49  1  0
 25 50  1  0
 27 51  1  0
 29 52  1  0
M  END
>  <energy_abs>  (117) 
61.36359019815535

>  <SMILES>  (117) 
COCCOc1cc2c(cc1OCCOC)ncnc2Nc3cccc(c3)C#C

>  <cluster_no>  (117) 
117

>  <fda_drugs_id>  (117) 
AAKJLRGGTJKAMG-UHFFFAOYSA-N

>  <initial_conformation_id>  (117) 
183

>  <minimize_method>  (117) 
MMFF

$$$$

     RDKit          3D

 52 54  0  0  0  0  0  0  0  0999 V2000
   -3.8480   -4.9795   -1.2555 C   0  0  0  0  0  0  0  0  0  0  0  0
   -3.6493   -3.6075   -0.9437 O   0  0  0  0  0  0  0  0  0  0  0  0
   -3.3416   -3.4205    0.4423 C   0  0  0  0  0  0  0  0  0  0  0  0
   -3.0773   -1.9383    0.7151 C   0  0  0  0  0  0  0  0  0  0  0  0
   -1.7869   -1.6006    0.1962 O   0  0  0  0  0  0  0  0  0  0  0  0
   -1.2237   -0.4098    0.5656 C   0  0  0  0  0  0  0  0  0  0  0  0
    0.1510   -0.3651    0.3051 C   0  0  0  0  0  0  0  0  0  0  0  0
    0.9339    0.7723    0.6167 C   0  0  0  0  0  0  0  0  0  0  0  0
    0.3092    1.8879    1.1799 C   0  0  0  0  0  0  0  0  0  0  0  0
   -1.0590    1.8396    1.4226 C   0  0  0  0  0  0  0  0  0  0  0  0
   -1.8447    0.7190    1.1101 C   0  0  0  0  0  0  0  0  0  0  0  0
   -3.1944    0.6852    1.3349 O   0  0  0  0  0  0  0  0  0  0  0  0
   -3.8864    1.9361    1.3404 C   0  0  0  0  0  0  0  0  0  0  0  0
   -5.3841    1.6585    1.2113 C   0  0  0  0  0  0  0  0  0  0  0  0
   -6.1602    2.8546    1.2773 O   0  0  0  0  0  0  0  0  0  0  0  0
   -6.2348    3.5371    0.0323 C   0  0  0  0  0  0  0  0  0  0  0  0
    0.9712    3.0052    1.4920 N   0  0  0  0  0  0  0  0  0  0  0  0
    2.2819    3.0201    1.2289 C   0  0  0  0  0  0  0  0  0  0  0  0
    2.9907    2.0199    0.7006 N   0  0  0  0  0  0  0  0  0  0  0  0
    2.3229    0.8914    0.4023 C   0  0  0  0  0  0  0  0  0  0  0  0
    3.0315   -0.2200   -0.1294 N   0  0  0  0  0  0  0  0  0  0  0  0
    4.3452   -0.2596   -0.6498 C   0  0  0  0  0  0  0  0  0  0  0  0
    5.0381   -1.4812   -0.6513 C   0  0  0  0  0  0  0  0  0  0  0  0
    6.3143   -1.5884   -1.2107 C   0  0  0  0  0  0  0  0  0  0  0  0
    6.9089   -0.4772   -1.8031 C   0  0  0  0  0  0  0  0  0  0  0  0
    6.2223    0.7357   -1.8444 C   0  0  0  0  0  0  0  0  0  0  0  0
    4.9453    0.8375   -1.2808 C   0  0  0  0  0  0  0  0  0  0  0  0
    6.8206    1.8737   -2.4736 C   0  0  0  0  0  0  0  0  0  0  0  0
    7.3222    2.8285   -3.0019 C   0  0  0  0  0  0  0  0  0  0  0  0
   -2.9317   -5.5494   -1.0704 H   0  0  0  0  0  0  0  0  0  0  0  0
   -4.1003   -5.0584   -2.3164 H   0  0  0  0  0  0  0  0  0  0  0  0
   -4.6738   -5.3922   -0.6676 H   0  0  0  0  0  0  0  0  0  0  0  0
   -2.4592   -4.0171    0.7007 H   0  0  0  0  0  0  0  0  0  0  0  0
   -4.1995   -3.7531    1.0372 H   0  0  0  0  0  0  0  0  0  0  0  0
   -3.0963   -1.7812    1.7999 H   0  0  0  0  0  0  0  0  0  0  0  0
   -3.8439   -1.3404    0.2093 H   0  0  0  0  0  0  0  0  0  0  0  0
    0.6118   -1.2339   -0.1610 H   0  0  0  0  0  0  0  0  0  0  0  0
   -1.5031    2.7205    1.8778 H   0  0  0  0  0  0  0  0  0  0  0  0
   -3.5554    2.5687    0.5086 H   0  0  0  0  0  0  0  0  0  0  0  0
   -3.7023    2.4666    2.2821 H   0  0  0  0  0  0  0  0  0  0  0  0
   -5.6987    1.0192    2.0447 H   0  0  0  0  0  0  0  0  0  0  0  0
   -5.6078    1.0938    0.2972 H   0  0  0  0  0  0  0  0  0  0  0  0
   -6.8655    4.4206    0.1644 H   0  0  0  0  0  0  0  0  0  0  0  0
   -6.6905    2.8966   -0.7295 H   0  0  0  0  0  0  0  0  0  0  0  0
   -5.2449    3.8664   -0.2947 H   0  0  0  0  0  0  0  0  0  0  0  0
    2.8218    3.9298    1.4688 H   0  0  0  0  0  0  0  0  0  0  0  0
    2.8304   -1.0378    0.4363 H   0  0  0  0  0  0  0  0  0  0  0  0
    4.5898   -2.3678   -0.2105 H   0  0  0  0  0  0  0  0  0  0  0  0
    6.8403   -2.5391   -1.1890 H   0  0  0  0  0  0  0  0  0  0  0  0
    7.8997   -0.5652   -2.2409 H   0  0  0  0  0  0  0  0  0  0  0  0
    4.4147    1.7838   -1.3473 H   0  0  0  0  0  0  0  0  0  0  0  0
    7.7642    3.6780   -3.4673 H   0  0  0  0  0  0  0  0  0  0  0  0
  1  2  1  0
  2  3  1  0
  3  4  1  0
  4  5  1  0
  5  6  1  0
  6  7  2  0
  7  8  1  0
  8  9  2  0
  9 10  1  0
 10 11  2  0
 11 12  1  0
 12 13  1  0
 13 14  1  0
 14 15  1  0
 15 16  1  0
  9 17  1  0
 17 18  2  0
 18 19  1  0
 19 20  2  0
 20 21  1  0
 21 22  1  0
 22 23  2  0
 23 24  1  0
 24 25  2  0
 25 26  1  0
 26 27  2  0
 26 28  1  0
 28 29  3  0
 11  6  1  0
 20  8  1  0
 27 22  1  0
  1 30  1  0
  1 31  1  0
  1 32  1  0
  3 33  1  0
  3 34  1  0
  4 35  1  0
  4 36  1  0
  7 37  1  0
 10 38  1  0
 13 39  1  0
 13 40  1  0
 14 41  1  0
 14 42  1  0
 16 43  1  0
 16 44  1  0
 16 45  1  0
 18 46  1  0
 21 47  1  0
 23 48  1  0
 24 49  1  0
 25 50  1  0
 27 51  1  0
 29 52  1  0
M  END
>  <energy_abs>  (118) 
58.2677856279293

>  <SMILES>  (118) 
COCCOc1cc2c(cc1OCCOC)ncnc2Nc3cccc(c3)C#C

>  <cluster_no>  (118) 
118

>  <fda_drugs_id>  (118) 
AAKJLRGGTJKAMG-UHFFFAOYSA-N

>  <initial_conformation_id>  (118) 
182

>  <minimize_method>  (118) 
MMFF

$$$$

     RDKit          3D

 52 54  0  0  0  0  0  0  0  0999 V2000
   -3.1232   -5.3629    0.4115 C   0  0  0  0  0  0  0  0  0  0  0  0
   -4.0163   -4.2589    0.4697 O   0  0  0  0  0  0  0  0  0  0  0  0
   -3.5902   -3.1533   -0.3279 C   0  0  0  0  0  0  0  0  0  0  0  0
   -2.5656   -2.2806    0.3952 C   0  0  0  0  0  0  0  0  0  0  0  0
   -2.1822   -1.2114   -0.4791 O   0  0  0  0  0  0  0  0  0  0  0  0
   -1.4233   -0.2841    0.1872 C   0  0  0  0  0  0  0  0  0  0  0  0
   -0.0523   -0.2880   -0.0581 C   0  0  0  0  0  0  0  0  0  0  0  0
    0.7889    0.6629    0.5640 C   0  0  0  0  0  0  0  0  0  0  0  0
    0.2197    1.6298    1.4044 C   0  0  0  0  0  0  0  0  0  0  0  0
   -1.1570    1.6260    1.6133 C   0  0  0  0  0  0  0  0  0  0  0  0
   -1.9985    0.6876    1.0112 C   0  0  0  0  0  0  0  0  0  0  0  0
   -3.3587    0.6377    1.1420 O   0  0  0  0  0  0  0  0  0  0  0  0
   -4.0318    1.6077    1.9510 C   0  0  0  0  0  0  0  0  0  0  0  0
   -4.3031    2.9020    1.1809 C   0  0  0  0  0  0  0  0  0  0  0  0
   -5.3366    2.6766    0.2168 O   0  0  0  0  0  0  0  0  0  0  0  0
   -5.5767    3.8308   -0.5763 C   0  0  0  0  0  0  0  0  0  0  0  0
    0.9453    2.5702    2.0137 N   0  0  0  0  0  0  0  0  0  0  0  0
    2.2618    2.5599    1.7794 C   0  0  0  0  0  0  0  0  0  0  0  0
    2.9183    1.6933    1.0051 N   0  0  0  0  0  0  0  0  0  0  0  0
    2.1874    0.7397    0.4015 C   0  0  0  0  0  0  0  0  0  0  0  0
    2.8372   -0.2280   -0.4119 N   0  0  0  0  0  0  0  0  0  0  0  0
    4.1540   -0.2068   -0.9262 C   0  0  0  0  0  0  0  0  0  0  0  0
    4.7643   -1.4215   -1.2788 C   0  0  0  0  0  0  0  0  0  0  0  0
    6.0390   -1.4514   -1.8512 C   0  0  0  0  0  0  0  0  0  0  0  0
    6.7154   -0.2606   -2.1041 C   0  0  0  0  0  0  0  0  0  0  0  0
    6.1115    0.9576   -1.7950 C   0  0  0  0  0  0  0  0  0  0  0  0
    4.8349    0.9810   -1.2215 C   0  0  0  0  0  0  0  0  0  0  0  0
    6.7927    2.1847   -2.0766 C   0  0  0  0  0  0  0  0  0  0  0  0
    7.3638    3.2147   -2.3108 C   0  0  0  0  0  0  0  0  0  0  0  0
   -3.0196   -5.7202   -0.6178 H   0  0  0  0  0  0  0  0  0  0  0  0
   -3.5399   -6.1716    1.0182 H   0  0  0  0  0  0  0  0  0  0  0  0
   -2.1439   -5.0974    0.8198 H   0  0  0  0  0  0  0  0  0  0  0  0
   -3.2100   -3.4941   -1.2989 H   0  0  0  0  0  0  0  0  0  0  0  0
   -4.4772   -2.5474   -0.5467 H   0  0  0  0  0  0  0  0  0  0  0  0
   -3.0040   -1.9172    1.3328 H   0  0  0  0  0  0  0  0  0  0  0  0
   -1.6780   -2.8702    0.6528 H   0  0  0  0  0  0  0  0  0  0  0  0
    0.3511   -1.0227   -0.7496 H   0  0  0  0  0  0  0  0  0  0  0  0
   -1.5495    2.4026    2.2613 H   0  0  0  0  0  0  0  0  0  0  0  0
   -4.9890    1.1527    2.2308 H   0  0  0  0  0  0  0  0  0  0  0  0
   -3.4923    1.7902    2.8862 H   0  0  0  0  0  0  0  0  0  0  0  0
   -3.4017    3.2492    0.6654 H   0  0  0  0  0  0  0  0  0  0  0  0
   -4.6428    3.6744    1.8795 H   0  0  0  0  0  0  0  0  0  0  0  0
   -4.6801    4.0996   -1.1431 H   0  0  0  0  0  0  0  0  0  0  0  0
   -6.3801    3.6033   -1.2824 H   0  0  0  0  0  0  0  0  0  0  0  0
   -5.8907    4.6693    0.0528 H   0  0  0  0  0  0  0  0  0  0  0  0
    2.8539    3.3272    2.2665 H   0  0  0  0  0  0  0  0  0  0  0  0
    2.5781   -1.1545   -0.0915 H   0  0  0  0  0  0  0  0  0  0  0  0
    4.2513   -2.3645   -1.1084 H   0  0  0  0  0  0  0  0  0  0  0  0
    6.4993   -2.4023   -2.1059 H   0  0  0  0  0  0  0  0  0  0  0  0
    7.7056   -0.2866   -2.5520 H   0  0  0  0  0  0  0  0  0  0  0  0
    4.3699    1.9412   -1.0147 H   0  0  0  0  0  0  0  0  0  0  0  0
    7.8688    4.1294   -2.5158 H   0  0  0  0  0  0  0  0  0  0  0  0
  1  2  1  0
  2  3  1  0
  3  4  1  0
  4  5  1  0
  5  6  1  0
  6  7  2  0
  7  8  1  0
  8  9  2  0
  9 10  1  0
 10 11  2  0
 11 12  1  0
 12 13  1  0
 13 14  1  0
 14 15  1  0
 15 16  1  0
  9 17  1  0
 17 18  2  0
 18 19  1  0
 19 20  2  0
 20 21  1  0
 21 22  1  0
 22 23  2  0
 23 24  1  0
 24 25  2  0
 25 26  1  0
 26 27  2  0
 26 28  1  0
 28 29  3  0
 11  6  1  0
 20  8  1  0
 27 22  1  0
  1 30  1  0
  1 31  1  0
  1 32  1  0
  3 33  1  0
  3 34  1  0
  4 35  1  0
  4 36  1  0
  7 37  1  0
 10 38  1  0
 13 39  1  0
 13 40  1  0
 14 41  1  0
 14 42  1  0
 16 43  1  0
 16 44  1  0
 16 45  1  0
 18 46  1  0
 21 47  1  0
 23 48  1  0
 24 49  1  0
 25 50  1  0
 27 51  1  0
 29 52  1  0
M  END
>  <energy_abs>  (119) 
61.495837725445355

>  <SMILES>  (119) 
COCCOc1cc2c(cc1OCCOC)ncnc2Nc3cccc(c3)C#C

>  <cluster_no>  (119) 
119

>  <fda_drugs_id>  (119) 
AAKJLRGGTJKAMG-UHFFFAOYSA-N

>  <initial_conformation_id>  (119) 
181

>  <minimize_method>  (119) 
MMFF

$$$$

     RDKit          3D

 52 54  0  0  0  0  0  0  0  0999 V2000
   -4.0055   -5.4308   -1.2627 C   0  0  0  0  0  0  0  0  0  0  0  0
   -4.0279   -4.0352   -0.9964 O   0  0  0  0  0  0  0  0  0  0  0  0
   -2.8871   -3.6266   -0.2431 C   0  0  0  0  0  0  0  0  0  0  0  0
   -2.9358   -2.1176   -0.0210 C   0  0  0  0  0  0  0  0  0  0  0  0
   -1.8064   -1.7400    0.7766 O   0  0  0  0  0  0  0  0  0  0  0  0
   -1.3585   -0.4696    0.5440 C   0  0  0  0  0  0  0  0  0  0  0  0
    0.0226   -0.3325    0.4180 C   0  0  0  0  0  0  0  0  0  0  0  0
    0.6170    0.9348    0.1820 C   0  0  0  0  0  0  0  0  0  0  0  0
   -0.2030    2.0668    0.0659 C   0  0  0  0  0  0  0  0  0  0  0  0
   -1.5743    1.9166    0.2150 C   0  0  0  0  0  0  0  0  0  0  0  0
   -2.1511    0.6723    0.4823 C   0  0  0  0  0  0  0  0  0  0  0  0
   -3.5072    0.6271    0.6534 O   0  0  0  0  0  0  0  0  0  0  0  0
   -3.8540    0.7494    2.0436 C   0  0  0  0  0  0  0  0  0  0  0  0
   -4.9438    1.8124    2.1995 C   0  0  0  0  0  0  0  0  0  0  0  0
   -4.4750    3.1319    1.9026 O   0  0  0  0  0  0  0  0  0  0  0  0
   -3.7395    3.7241    2.9643 C   0  0  0  0  0  0  0  0  0  0  0  0
    0.2822    3.2877   -0.1723 N   0  0  0  0  0  0  0  0  0  0  0  0
    1.6073    3.3913   -0.3105 C   0  0  0  0  0  0  0  0  0  0  0  0
    2.4901    2.3937   -0.2169 N   0  0  0  0  0  0  0  0  0  0  0  0
    2.0003    1.1672    0.0368 C   0  0  0  0  0  0  0  0  0  0  0  0
    2.8969    0.0718    0.1767 N   0  0  0  0  0  0  0  0  0  0  0  0
    4.2695    0.0059   -0.1572 C   0  0  0  0  0  0  0  0  0  0  0  0
    5.0742   -0.9569    0.4740 C   0  0  0  0  0  0  0  0  0  0  0  0
    6.4224   -1.1074    0.1372 C   0  0  0  0  0  0  0  0  0  0  0  0
    6.9828   -0.3112   -0.8585 C   0  0  0  0  0  0  0  0  0  0  0  0
    6.1911    0.6238   -1.5245 C   0  0  0  0  0  0  0  0  0  0  0  0
    4.8409    0.7686   -1.1838 C   0  0  0  0  0  0  0  0  0  0  0  0
    6.7578    1.4294   -2.5626 C   0  0  0  0  0  0  0  0  0  0  0  0
    7.2327    2.1072   -3.4329 C   0  0  0  0  0  0  0  0  0  0  0  0
   -4.9046   -5.6879   -1.8295 H   0  0  0  0  0  0  0  0  0  0  0  0
   -4.0055   -5.9999   -0.3288 H   0  0  0  0  0  0  0  0  0  0  0  0
   -3.1286   -5.6911   -1.8631 H   0  0  0  0  0  0  0  0  0  0  0  0
   -2.8724   -4.1449    0.7238 H   0  0  0  0  0  0  0  0  0  0  0  0
   -1.9669   -3.8917   -0.7783 H   0  0  0  0  0  0  0  0  0  0  0  0
   -3.8630   -1.8659    0.5056 H   0  0  0  0  0  0  0  0  0  0  0  0
   -2.9430   -1.6129   -0.9966 H   0  0  0  0  0  0  0  0  0  0  0  0
    0.6385   -1.2273    0.4746 H   0  0  0  0  0  0  0  0  0  0  0  0
   -2.2158    2.7918    0.1337 H   0  0  0  0  0  0  0  0  0  0  0  0
   -4.2506   -0.2199    2.3655 H   0  0  0  0  0  0  0  0  0  0  0  0
   -2.9881    0.9837    2.6754 H   0  0  0  0  0  0  0  0  0  0  0  0
   -5.3706    1.7870    3.2083 H   0  0  0  0  0  0  0  0  0  0  0  0
   -5.7519    1.6065    1.4897 H   0  0  0  0  0  0  0  0  0  0  0  0
   -3.4617    4.7370    2.6613 H   0  0  0  0  0  0  0  0  0  0  0  0
   -2.8232    3.1642    3.1697 H   0  0  0  0  0  0  0  0  0  0  0  0
   -4.3532    3.7882    3.8682 H   0  0  0  0  0  0  0  0  0  0  0  0
    2.0044    4.3792   -0.5165 H   0  0  0  0  0  0  0  0  0  0  0  0
    2.7101   -0.3908    1.0600 H   0  0  0  0  0  0  0  0  0  0  0  0
    4.6582   -1.6022    1.2438 H   0  0  0  0  0  0  0  0  0  0  0  0
    7.0316   -1.8486    0.6473 H   0  0  0  0  0  0  0  0  0  0  0  0
    8.0316   -0.4306   -1.1189 H   0  0  0  0  0  0  0  0  0  0  0  0
    4.2347    1.4831   -1.7343 H   0  0  0  0  0  0  0  0  0  0  0  0
    7.6496    2.7117   -4.2043 H   0  0  0  0  0  0  0  0  0  0  0  0
  1  2  1  0
  2  3  1  0
  3  4  1  0
  4  5  1  0
  5  6  1  0
  6  7  2  0
  7  8  1  0
  8  9  2  0
  9 10  1  0
 10 11  2  0
 11 12  1  0
 12 13  1  0
 13 14  1  0
 14 15  1  0
 15 16  1  0
  9 17  1  0
 17 18  2  0
 18 19  1  0
 19 20  2  0
 20 21  1  0
 21 22  1  0
 22 23  2  0
 23 24  1  0
 24 25  2  0
 25 26  1  0
 26 27  2  0
 26 28  1  0
 28 29  3  0
 11  6  1  0
 20  8  1  0
 27 22  1  0
  1 30  1  0
  1 31  1  0
  1 32  1  0
  3 33  1  0
  3 34  1  0
  4 35  1  0
  4 36  1  0
  7 37  1  0
 10 38  1  0
 13 39  1  0
 13 40  1  0
 14 41  1  0
 14 42  1  0
 16 43  1  0
 16 44  1  0
 16 45  1  0
 18 46  1  0
 21 47  1  0
 23 48  1  0
 24 49  1  0
 25 50  1  0
 27 51  1  0
 29 52  1  0
M  END
>  <energy_abs>  (120) 
58.847324374247435

>  <SMILES>  (120) 
COCCOc1cc2c(cc1OCCOC)ncnc2Nc3cccc(c3)C#C

>  <cluster_no>  (120) 
120

>  <fda_drugs_id>  (120) 
AAKJLRGGTJKAMG-UHFFFAOYSA-N

>  <initial_conformation_id>  (120) 
180

>  <minimize_method>  (120) 
MMFF

$$$$

     RDKit          3D

 52 54  0  0  0  0  0  0  0  0999 V2000
   -3.2054   -5.9071   -0.6630 C   0  0  0  0  0  0  0  0  0  0  0  0
   -2.2216   -4.8864   -0.5529 O   0  0  0  0  0  0  0  0  0  0  0  0
   -2.8121   -3.6229   -0.2485 C   0  0  0  0  0  0  0  0  0  0  0  0
   -1.7169   -2.5654   -0.1533 C   0  0  0  0  0  0  0  0  0  0  0  0
   -2.3204   -1.3153    0.1698 O   0  0  0  0  0  0  0  0  0  0  0  0
   -1.5047   -0.2223    0.3103 C   0  0  0  0  0  0  0  0  0  0  0  0
   -0.1176   -0.2407    0.1556 C   0  0  0  0  0  0  0  0  0  0  0  0
    0.6537    0.9382    0.3242 C   0  0  0  0  0  0  0  0  0  0  0  0
    0.0083    2.1410    0.6334 C   0  0  0  0  0  0  0  0  0  0  0  0
   -1.3728    2.1457    0.7858 C   0  0  0  0  0  0  0  0  0  0  0  0
   -2.1415    0.9881    0.6264 C   0  0  0  0  0  0  0  0  0  0  0  0
   -3.5040    0.9262    0.7732 O   0  0  0  0  0  0  0  0  0  0  0  0
   -4.2504    2.1373    0.8748 C   0  0  0  0  0  0  0  0  0  0  0  0
   -4.4447    2.5418    2.3363 C   0  0  0  0  0  0  0  0  0  0  0  0
   -5.1220    3.7922    2.4645 O   0  0  0  0  0  0  0  0  0  0  0  0
   -6.5307    3.6821    2.3103 C   0  0  0  0  0  0  0  0  0  0  0  0
    0.6652    3.2927    0.7907 N   0  0  0  0  0  0  0  0  0  0  0  0
    1.9914    3.2571    0.6278 C   0  0  0  0  0  0  0  0  0  0  0  0
    2.7198    2.1772    0.3381 N   0  0  0  0  0  0  0  0  0  0  0  0
    2.0565    1.0163    0.1957 C   0  0  0  0  0  0  0  0  0  0  0  0
    2.7870   -0.1747   -0.0698 N   0  0  0  0  0  0  0  0  0  0  0  0
    4.1283   -0.3042   -0.4991 C   0  0  0  0  0  0  0  0  0  0  0  0
    4.8125   -1.5022   -0.2363 C   0  0  0  0  0  0  0  0  0  0  0  0
    6.1165   -1.7060   -0.6961 C   0  0  0  0  0  0  0  0  0  0  0  0
    6.7492   -0.7214   -1.4511 C   0  0  0  0  0  0  0  0  0  0  0  0
    6.0726    0.4594   -1.7554 C   0  0  0  0  0  0  0  0  0  0  0  0
    4.7669    0.6579   -1.2922 C   0  0  0  0  0  0  0  0  0  0  0  0
    6.7107    1.4635   -2.5511 C   0  0  0  0  0  0  0  0  0  0  0  0
    7.2452    2.3066   -3.2185 C   0  0  0  0  0  0  0  0  0  0  0  0
   -3.7448   -6.0228    0.2820 H   0  0  0  0  0  0  0  0  0  0  0  0
   -3.9059   -5.6782   -1.4720 H   0  0  0  0  0  0  0  0  0  0  0  0
   -2.7001   -6.8486   -0.8944 H   0  0  0  0  0  0  0  0  0  0  0  0
   -3.5307   -3.3449   -1.0290 H   0  0  0  0  0  0  0  0  0  0  0  0
   -3.3564   -3.6823    0.7017 H   0  0  0  0  0  0  0  0  0  0  0  0
   -1.0001   -2.8617    0.6226 H   0  0  0  0  0  0  0  0  0  0  0  0
   -1.1928   -2.5060   -1.1153 H   0  0  0  0  0  0  0  0  0  0  0  0
    0.3930   -1.1589   -0.1152 H   0  0  0  0  0  0  0  0  0  0  0  0
   -1.8300    3.0963    1.0436 H   0  0  0  0  0  0  0  0  0  0  0  0
   -5.2306    1.9292    0.4312 H   0  0  0  0  0  0  0  0  0  0  0  0
   -3.8393    2.9501    0.2644 H   0  0  0  0  0  0  0  0  0  0  0  0
   -4.9651    1.7556    2.8972 H   0  0  0  0  0  0  0  0  0  0  0  0
   -3.4693    2.6562    2.8203 H   0  0  0  0  0  0  0  0  0  0  0  0
   -6.7895    3.3601    1.2982 H   0  0  0  0  0  0  0  0  0  0  0  0
   -6.9705    4.6689    2.4791 H   0  0  0  0  0  0  0  0  0  0  0  0
   -6.9458    2.9874    3.0466 H   0  0  0  0  0  0  0  0  0  0  0  0
    2.5267    4.1931    0.7451 H   0  0  0  0  0  0  0  0  0  0  0  0
    2.5620   -0.8588    0.6451 H   0  0  0  0  0  0  0  0  0  0  0  0
    4.3361   -2.2934    0.3370 H   0  0  0  0  0  0  0  0  0  0  0  0
    6.6343   -2.6345   -0.4705 H   0  0  0  0  0  0  0  0  0  0  0  0
    7.7628   -0.8836   -1.8088 H   0  0  0  0  0  0  0  0  0  0  0  0
    4.2466    1.5730   -1.5627 H   0  0  0  0  0  0  0  0  0  0  0  0
    7.7168    3.0562   -3.8099 H   0  0  0  0  0  0  0  0  0  0  0  0
  1  2  1  0
  2  3  1  0
  3  4  1  0
  4  5  1  0
  5  6  1  0
  6  7  2  0
  7  8  1  0
  8  9  2  0
  9 10  1  0
 10 11  2  0
 11 12  1  0
 12 13  1  0
 13 14  1  0
 14 15  1  0
 15 16  1  0
  9 17  1  0
 17 18  2  0
 18 19  1  0
 19 20  2  0
 20 21  1  0
 21 22  1  0
 22 23  2  0
 23 24  1  0
 24 25  2  0
 25 26  1  0
 26 27  2  0
 26 28  1  0
 28 29  3  0
 11  6  1  0
 20  8  1  0
 27 22  1  0
  1 30  1  0
  1 31  1  0
  1 32  1  0
  3 33  1  0
  3 34  1  0
  4 35  1  0
  4 36  1  0
  7 37  1  0
 10 38  1  0
 13 39  1  0
 13 40  1  0
 14 41  1  0
 14 42  1  0
 16 43  1  0
 16 44  1  0
 16 45  1  0
 18 46  1  0
 21 47  1  0
 23 48  1  0
 24 49  1  0
 25 50  1  0
 27 51  1  0
 29 52  1  0
M  END
>  <energy_abs>  (121) 
58.59072239803412

>  <SMILES>  (121) 
COCCOc1cc2c(cc1OCCOC)ncnc2Nc3cccc(c3)C#C

>  <cluster_no>  (121) 
121

>  <fda_drugs_id>  (121) 
AAKJLRGGTJKAMG-UHFFFAOYSA-N

>  <initial_conformation_id>  (121) 
179

>  <minimize_method>  (121) 
MMFF

$$$$

     RDKit          3D

 52 54  0  0  0  0  0  0  0  0999 V2000
   -2.6048   -4.2472   -2.2911 C   0  0  0  0  0  0  0  0  0  0  0  0
   -3.2115   -3.8524   -1.0659 O   0  0  0  0  0  0  0  0  0  0  0  0
   -2.2936   -3.7830    0.0306 C   0  0  0  0  0  0  0  0  0  0  0  0
   -1.3423   -2.5841   -0.0386 C   0  0  0  0  0  0  0  0  0  0  0  0
   -2.0960   -1.3819    0.1495 O   0  0  0  0  0  0  0  0  0  0  0  0
   -1.3849   -0.2616    0.4765 C   0  0  0  0  0  0  0  0  0  0  0  0
   -0.0550   -0.0321    0.1256 C   0  0  0  0  0  0  0  0  0  0  0  0
    0.6029    1.1779    0.4889 C   0  0  0  0  0  0  0  0  0  0  0  0
   -0.0951    2.1526    1.2201 C   0  0  0  0  0  0  0  0  0  0  0  0
   -1.4160    1.9130    1.5595 C   0  0  0  0  0  0  0  0  0  0  0  0
   -2.0610    0.7340    1.1790 C   0  0  0  0  0  0  0  0  0  0  0  0
   -3.3538    0.5448    1.5893 O   0  0  0  0  0  0  0  0  0  0  0  0
   -4.2800    1.0539    0.6133 C   0  0  0  0  0  0  0  0  0  0  0  0
   -5.4032    1.7836    1.3513 C   0  0  0  0  0  0  0  0  0  0  0  0
   -4.9013    3.0284    1.8563 O   0  0  0  0  0  0  0  0  0  0  0  0
   -5.8377    3.6688    2.7124 C   0  0  0  0  0  0  0  0  0  0  0  0
    0.4588    3.3058    1.6050 N   0  0  0  0  0  0  0  0  0  0  0  0
    1.7358    3.4994    1.2667 C   0  0  0  0  0  0  0  0  0  0  0  0
    2.5068    2.6532    0.5788 N   0  0  0  0  0  0  0  0  0  0  0  0
    1.9434    1.4972    0.1833 C   0  0  0  0  0  0  0  0  0  0  0  0
    2.7168    0.5657   -0.5644 N   0  0  0  0  0  0  0  0  0  0  0  0
    4.1185    0.5196   -0.7487 C   0  0  0  0  0  0  0  0  0  0  0  0
    5.0256    1.0611    0.1723 C   0  0  0  0  0  0  0  0  0  0  0  0
    6.4073    0.9359   -0.0109 C   0  0  0  0  0  0  0  0  0  0  0  0
    6.9049    0.2313   -1.1056 C   0  0  0  0  0  0  0  0  0  0  0  0
    6.0203   -0.3557   -2.0105 C   0  0  0  0  0  0  0  0  0  0  0  0
    4.6385   -0.2191   -1.8264 C   0  0  0  0  0  0  0  0  0  0  0  0
    6.5244   -1.1083   -3.1205 C   0  0  0  0  0  0  0  0  0  0  0  0
    6.9510   -1.7464   -4.0464 C   0  0  0  0  0  0  0  0  0  0  0  0
   -3.3966   -4.5178   -2.9932 H   0  0  0  0  0  0  0  0  0  0  0  0
   -2.0330   -3.4193   -2.7213 H   0  0  0  0  0  0  0  0  0  0  0  0
   -1.9560   -5.1182   -2.1491 H   0  0  0  0  0  0  0  0  0  0  0  0
   -2.9048   -3.7060    0.9385 H   0  0  0  0  0  0  0  0  0  0  0  0
   -1.7270   -4.7195    0.0910 H   0  0  0  0  0  0  0  0  0  0  0  0
   -0.8401   -2.5456   -1.0101 H   0  0  0  0  0  0  0  0  0  0  0  0
   -0.5979   -2.6911    0.7598 H   0  0  0  0  0  0  0  0  0  0  0  0
    0.4957   -0.7830   -0.4324 H   0  0  0  0  0  0  0  0  0  0  0  0
   -1.9656    2.6577    2.1301 H   0  0  0  0  0  0  0  0  0  0  0  0
   -4.6878    0.1964    0.0672 H   0  0  0  0  0  0  0  0  0  0  0  0
   -3.8022    1.7367   -0.1018 H   0  0  0  0  0  0  0  0  0  0  0  0
   -5.7658    1.1701    2.1859 H   0  0  0  0  0  0  0  0  0  0  0  0
   -6.2294    1.9953    0.6607 H   0  0  0  0  0  0  0  0  0  0  0  0
   -6.7603    3.9018    2.1690 H   0  0  0  0  0  0  0  0  0  0  0  0
   -5.3934    4.6044    3.0710 H   0  0  0  0  0  0  0  0  0  0  0  0
   -6.0572    3.0342    3.5769 H   0  0  0  0  0  0  0  0  0  0  0  0
    2.1900    4.4326    1.5797 H   0  0  0  0  0  0  0  0  0  0  0  0
    2.2226    0.3359   -1.4227 H   0  0  0  0  0  0  0  0  0  0  0  0
    4.6706    1.5911    1.0533 H   0  0  0  0  0  0  0  0  0  0  0  0
    7.0889    1.3843    0.7085 H   0  0  0  0  0  0  0  0  0  0  0  0
    7.9797    0.1339   -1.2392 H   0  0  0  0  0  0  0  0  0  0  0  0
    3.9645   -0.6963   -2.5348 H   0  0  0  0  0  0  0  0  0  0  0  0
    7.3344   -2.3147   -4.8639 H   0  0  0  0  0  0  0  0  0  0  0  0
  1  2  1  0
  2  3  1  0
  3  4  1  0
  4  5  1  0
  5  6  1  0
  6  7  2  0
  7  8  1  0
  8  9  2  0
  9 10  1  0
 10 11  2  0
 11 12  1  0
 12 13  1  0
 13 14  1  0
 14 15  1  0
 15 16  1  0
  9 17  1  0
 17 18  2  0
 18 19  1  0
 19 20  2  0
 20 21  1  0
 21 22  1  0
 22 23  2  0
 23 24  1  0
 24 25  2  0
 25 26  1  0
 26 27  2  0
 26 28  1  0
 28 29  3  0
 11  6  1  0
 20  8  1  0
 27 22  1  0
  1 30  1  0
  1 31  1  0
  1 32  1  0
  3 33  1  0
  3 34  1  0
  4 35  1  0
  4 36  1  0
  7 37  1  0
 10 38  1  0
 13 39  1  0
 13 40  1  0
 14 41  1  0
 14 42  1  0
 16 43  1  0
 16 44  1  0
 16 45  1  0
 18 46  1  0
 21 47  1  0
 23 48  1  0
 24 49  1  0
 25 50  1  0
 27 51  1  0
 29 52  1  0
M  END
>  <energy_abs>  (122) 
61.58778528738466

>  <SMILES>  (122) 
COCCOc1cc2c(cc1OCCOC)ncnc2Nc3cccc(c3)C#C

>  <cluster_no>  (122) 
122

>  <fda_drugs_id>  (122) 
AAKJLRGGTJKAMG-UHFFFAOYSA-N

>  <initial_conformation_id>  (122) 
178

>  <minimize_method>  (122) 
MMFF

$$$$

     RDKit          3D

 52 54  0  0  0  0  0  0  0  0999 V2000
   -4.0417   -4.8672    0.6488 C   0  0  0  0  0  0  0  0  0  0  0  0
   -3.6101   -3.7217    1.3726 O   0  0  0  0  0  0  0  0  0  0  0  0
   -3.4984   -2.5587    0.5495 C   0  0  0  0  0  0  0  0  0  0  0  0
   -2.1389   -2.4867   -0.1459 C   0  0  0  0  0  0  0  0  0  0  0  0
   -2.0867   -1.3658   -1.0370 O   0  0  0  0  0  0  0  0  0  0  0  0
   -1.4031   -0.3116   -0.4892 C   0  0  0  0  0  0  0  0  0  0  0  0
   -0.0099   -0.3232   -0.5179 C   0  0  0  0  0  0  0  0  0  0  0  0
    0.7246    0.7674    0.0020 C   0  0  0  0  0  0  0  0  0  0  0  0
    0.0329    1.8732    0.5162 C   0  0  0  0  0  0  0  0  0  0  0  0
   -1.3598    1.8680    0.5116 C   0  0  0  0  0  0  0  0  0  0  0  0
   -2.0970    0.7946    0.0058 C   0  0  0  0  0  0  0  0  0  0  0  0
   -3.4619    0.7141   -0.0386 O   0  0  0  0  0  0  0  0  0  0  0  0
   -4.2389    1.8509    0.3344 C   0  0  0  0  0  0  0  0  0  0  0  0
   -4.5538    1.8374    1.8279 C   0  0  0  0  0  0  0  0  0  0  0  0
   -5.3355    2.9854    2.1553 O   0  0  0  0  0  0  0  0  0  0  0  0
   -5.6818    3.0056    3.5339 C   0  0  0  0  0  0  0  0  0  0  0  0
    0.6575    2.9440    1.0113 N   0  0  0  0  0  0  0  0  0  0  0  0
    1.9943    2.9285    0.9837 C   0  0  0  0  0  0  0  0  0  0  0  0
    2.7618    1.9380    0.5238 N   0  0  0  0  0  0  0  0  0  0  0  0
    2.1315    0.8531    0.0405 C   0  0  0  0  0  0  0  0  0  0  0  0
    2.8982   -0.2495   -0.4262 N   0  0  0  0  0  0  0  0  0  0  0  0
    4.2794   -0.2939   -0.7261 C   0  0  0  0  0  0  0  0  0  0  0  0
    4.9447   -1.5300   -0.6830 C   0  0  0  0  0  0  0  0  0  0  0  0
    6.2934   -1.6380   -1.0329 C   0  0  0  0  0  0  0  0  0  0  0  0
    6.9934   -0.5115   -1.4582 C   0  0  0  0  0  0  0  0  0  0  0  0
    6.3406    0.7178   -1.5442 C   0  0  0  0  0  0  0  0  0  0  0  0
    4.9901    0.8200   -1.1916 C   0  0  0  0  0  0  0  0  0  0  0  0
    7.0499    1.8725   -2.0049 C   0  0  0  0  0  0  0  0  0  0  0  0
    7.6439    2.8416   -2.3923 C   0  0  0  0  0  0  0  0  0  0  0  0
   -5.0303   -4.6943    0.2123 H   0  0  0  0  0  0  0  0  0  0  0  0
   -4.1139   -5.7059    1.3469 H   0  0  0  0  0  0  0  0  0  0  0  0
   -3.3248   -5.1307   -0.1335 H   0  0  0  0  0  0  0  0  0  0  0  0
   -3.6103   -1.6926    1.2099 H   0  0  0  0  0  0  0  0  0  0  0  0
   -4.3223   -2.5020   -0.1724 H   0  0  0  0  0  0  0  0  0  0  0  0
   -1.9829   -3.3828   -0.7561 H   0  0  0  0  0  0  0  0  0  0  0  0
   -1.3294   -2.4899    0.5970 H   0  0  0  0  0  0  0  0  0  0  0  0
    0.4981   -1.1724   -0.9669 H   0  0  0  0  0  0  0  0  0  0  0  0
   -1.8499    2.7461    0.9214 H   0  0  0  0  0  0  0  0  0  0  0  0
   -3.7977    2.7987    0.0034 H   0  0  0  0  0  0  0  0  0  0  0  0
   -5.1848    1.7816   -0.2170 H   0  0  0  0  0  0  0  0  0  0  0  0
   -5.1042    0.9225    2.0793 H   0  0  0  0  0  0  0  0  0  0  0  0
   -3.6303    1.8393    2.4176 H   0  0  0  0  0  0  0  0  0  0  0  0
   -6.2728    3.9049    3.7275 H   0  0  0  0  0  0  0  0  0  0  0  0
   -4.7817    3.0376    4.1550 H   0  0  0  0  0  0  0  0  0  0  0  0
   -6.2849    2.1290    3.7898 H   0  0  0  0  0  0  0  0  0  0  0  0
    2.5041    3.8020    1.3753 H   0  0  0  0  0  0  0  0  0  0  0  0
    2.5992   -1.0854    0.0644 H   0  0  0  0  0  0  0  0  0  0  0  0
    4.4176   -2.4276   -0.3697 H   0  0  0  0  0  0  0  0  0  0  0  0
    6.7942   -2.6010   -0.9801 H   0  0  0  0  0  0  0  0  0  0  0  0
    8.0419   -0.5989   -1.7320 H   0  0  0  0  0  0  0  0  0  0  0  0
    4.4918    1.7808   -1.2915 H   0  0  0  0  0  0  0  0  0  0  0  0
    8.1682    3.7025   -2.7358 H   0  0  0  0  0  0  0  0  0  0  0  0
  1  2  1  0
  2  3  1  0
  3  4  1  0
  4  5  1  0
  5  6  1  0
  6  7  2  0
  7  8  1  0
  8  9  2  0
  9 10  1  0
 10 11  2  0
 11 12  1  0
 12 13  1  0
 13 14  1  0
 14 15  1  0
 15 16  1  0
  9 17  1  0
 17 18  2  0
 18 19  1  0
 19 20  2  0
 20 21  1  0
 21 22  1  0
 22 23  2  0
 23 24  1  0
 24 25  2  0
 25 26  1  0
 26 27  2  0
 26 28  1  0
 28 29  3  0
 11  6  1  0
 20  8  1  0
 27 22  1  0
  1 30  1  0
  1 31  1  0
  1 32  1  0
  3 33  1  0
  3 34  1  0
  4 35  1  0
  4 36  1  0
  7 37  1  0
 10 38  1  0
 13 39  1  0
 13 40  1  0
 14 41  1  0
 14 42  1  0
 16 43  1  0
 16 44  1  0
 16 45  1  0
 18 46  1  0
 21 47  1  0
 23 48  1  0
 24 49  1  0
 25 50  1  0
 27 51  1  0
 29 52  1  0
M  END
>  <energy_abs>  (123) 
59.830917567516195

>  <SMILES>  (123) 
COCCOc1cc2c(cc1OCCOC)ncnc2Nc3cccc(c3)C#C

>  <cluster_no>  (123) 
123

>  <fda_drugs_id>  (123) 
AAKJLRGGTJKAMG-UHFFFAOYSA-N

>  <initial_conformation_id>  (123) 
177

>  <minimize_method>  (123) 
MMFF

$$$$

     RDKit          3D

 52 54  0  0  0  0  0  0  0  0999 V2000
   -4.2335   -4.8708   -1.2309 C   0  0  0  0  0  0  0  0  0  0  0  0
   -3.1873   -3.9112   -1.1743 O   0  0  0  0  0  0  0  0  0  0  0  0
   -2.4952   -3.9560    0.0776 C   0  0  0  0  0  0  0  0  0  0  0  0
   -1.4587   -2.8328    0.1272 C   0  0  0  0  0  0  0  0  0  0  0  0
   -2.1311   -1.6026    0.4096 O   0  0  0  0  0  0  0  0  0  0  0  0
   -1.3896   -0.4502    0.4403 C   0  0  0  0  0  0  0  0  0  0  0  0
   -0.0044   -0.3918    0.2792 C   0  0  0  0  0  0  0  0  0  0  0  0
    0.6872    0.8464    0.3297 C   0  0  0  0  0  0  0  0  0  0  0  0
   -0.0360    2.0283    0.5273 C   0  0  0  0  0  0  0  0  0  0  0  0
   -1.4136    1.9562    0.6901 C   0  0  0  0  0  0  0  0  0  0  0  0
   -2.1037    0.7402    0.6486 C   0  0  0  0  0  0  0  0  0  0  0  0
   -3.4576    0.6058    0.8232 O   0  0  0  0  0  0  0  0  0  0  0  0
   -4.2852    1.7644    0.7445 C   0  0  0  0  0  0  0  0  0  0  0  0
   -4.5427    2.3450    2.1320 C   0  0  0  0  0  0  0  0  0  0  0  0
   -5.3564    3.5116    2.0130 O   0  0  0  0  0  0  0  0  0  0  0  0
   -5.6354    4.0856    3.2834 C   0  0  0  0  0  0  0  0  0  0  0  0
    0.5435    3.2306    0.5707 N   0  0  0  0  0  0  0  0  0  0  0  0
    1.8687    3.2670    0.4005 C   0  0  0  0  0  0  0  0  0  0  0  0
    2.6670    2.2146    0.2120 N   0  0  0  0  0  0  0  0  0  0  0  0
    2.0817    1.0043    0.1859 C   0  0  0  0  0  0  0  0  0  0  0  0
    2.8908   -0.1563    0.0379 N   0  0  0  0  0  0  0  0  0  0  0  0
    4.2381   -0.2349   -0.3853 C   0  0  0  0  0  0  0  0  0  0  0  0
    5.0089   -1.3429    0.0024 C   0  0  0  0  0  0  0  0  0  0  0  0
    6.3241   -1.5000   -0.4433 C   0  0  0  0  0  0  0  0  0  0  0  0
    6.8820   -0.5611   -1.3078 C   0  0  0  0  0  0  0  0  0  0  0  0
    6.1200    0.5260   -1.7348 C   0  0  0  0  0  0  0  0  0  0  0  0
    4.8034    0.6781   -1.2850 C   0  0  0  0  0  0  0  0  0  0  0  0
    6.6818    1.4800   -2.6417 C   0  0  0  0  0  0  0  0  0  0  0  0
    7.1520    2.2810   -3.4028 C   0  0  0  0  0  0  0  0  0  0  0  0
   -3.8333   -5.8818   -1.1083 H   0  0  0  0  0  0  0  0  0  0  0  0
   -4.7126   -4.8008   -2.2112 H   0  0  0  0  0  0  0  0  0  0  0  0
   -4.9832   -4.6659   -0.4607 H   0  0  0  0  0  0  0  0  0  0  0  0
   -1.9893   -4.9244    0.1567 H   0  0  0  0  0  0  0  0  0  0  0  0
   -3.2144   -3.8472    0.8976 H   0  0  0  0  0  0  0  0  0  0  0  0
   -0.7482   -3.0446    0.9342 H   0  0  0  0  0  0  0  0  0  0  0  0
   -0.9427   -2.7663   -0.8377 H   0  0  0  0  0  0  0  0  0  0  0  0
    0.5653   -1.2960    0.0939 H   0  0  0  0  0  0  0  0  0  0  0  0
   -1.9343    2.8937    0.8596 H   0  0  0  0  0  0  0  0  0  0  0  0
   -3.9118    2.5140    0.0364 H   0  0  0  0  0  0  0  0  0  0  0  0
   -5.2449    1.4414    0.3223 H   0  0  0  0  0  0  0  0  0  0  0  0
   -5.0471    1.5974    2.7562 H   0  0  0  0  0  0  0  0  0  0  0  0
   -3.5980    2.6016    2.6242 H   0  0  0  0  0  0  0  0  0  0  0  0
   -6.2591    4.9706    3.1318 H   0  0  0  0  0  0  0  0  0  0  0  0
   -4.7081    4.3918    3.7772 H   0  0  0  0  0  0  0  0  0  0  0  0
   -6.1817    3.3763    3.9125 H   0  0  0  0  0  0  0  0  0  0  0  0
    2.3407    4.2433    0.4217 H   0  0  0  0  0  0  0  0  0  0  0  0
    2.7152   -0.7732    0.8239 H   0  0  0  0  0  0  0  0  0  0  0  0
    4.5928   -2.0981    0.6641 H   0  0  0  0  0  0  0  0  0  0  0  0
    6.9098   -2.3568   -0.1210 H   0  0  0  0  0  0  0  0  0  0  0  0
    7.9047   -0.6869   -1.6543 H   0  0  0  0  0  0  0  0  0  0  0  0
    4.2165    1.5171   -1.6499 H   0  0  0  0  0  0  0  0  0  0  0  0
    7.5659    2.9932   -4.0777 H   0  0  0  0  0  0  0  0  0  0  0  0
  1  2  1  0
  2  3  1  0
  3  4  1  0
  4  5  1  0
  5  6  1  0
  6  7  2  0
  7  8  1  0
  8  9  2  0
  9 10  1  0
 10 11  2  0
 11 12  1  0
 12 13  1  0
 13 14  1  0
 14 15  1  0
 15 16  1  0
  9 17  1  0
 17 18  2  0
 18 19  1  0
 19 20  2  0
 20 21  1  0
 21 22  1  0
 22 23  2  0
 23 24  1  0
 24 25  2  0
 25 26  1  0
 26 27  2  0
 26 28  1  0
 28 29  3  0
 11  6  1  0
 20  8  1  0
 27 22  1  0
  1 30  1  0
  1 31  1  0
  1 32  1  0
  3 33  1  0
  3 34  1  0
  4 35  1  0
  4 36  1  0
  7 37  1  0
 10 38  1  0
 13 39  1  0
 13 40  1  0
 14 41  1  0
 14 42  1  0
 16 43  1  0
 16 44  1  0
 16 45  1  0
 18 46  1  0
 21 47  1  0
 23 48  1  0
 24 49  1  0
 25 50  1  0
 27 51  1  0
 29 52  1  0
M  END
>  <energy_abs>  (124) 
59.80610882471905

>  <SMILES>  (124) 
COCCOc1cc2c(cc1OCCOC)ncnc2Nc3cccc(c3)C#C

>  <cluster_no>  (124) 
124

>  <fda_drugs_id>  (124) 
AAKJLRGGTJKAMG-UHFFFAOYSA-N

>  <initial_conformation_id>  (124) 
176

>  <minimize_method>  (124) 
MMFF

$$$$

     RDKit          3D

 52 54  0  0  0  0  0  0  0  0999 V2000
   -0.0337   -3.9196   -1.8607 C   0  0  0  0  0  0  0  0  0  0  0  0
   -1.4382   -4.0069   -1.6560 O   0  0  0  0  0  0  0  0  0  0  0  0
   -1.9916   -2.8117   -1.1041 C   0  0  0  0  0  0  0  0  0  0  0  0
   -1.9203   -2.8145    0.4239 C   0  0  0  0  0  0  0  0  0  0  0  0
   -2.4218   -1.5998    0.9788 O   0  0  0  0  0  0  0  0  0  0  0  0
   -1.6278   -0.4830    0.9894 C   0  0  0  0  0  0  0  0  0  0  0  0
   -0.2655   -0.4709    0.6893 C   0  0  0  0  0  0  0  0  0  0  0  0
    0.4807    0.7348    0.7179 C   0  0  0  0  0  0  0  0  0  0  0  0
   -0.1639    1.9342    1.0378 C   0  0  0  0  0  0  0  0  0  0  0  0
   -1.5173    1.9076    1.3488 C   0  0  0  0  0  0  0  0  0  0  0  0
   -2.2592    0.7215    1.3392 C   0  0  0  0  0  0  0  0  0  0  0  0
   -3.5979    0.6335    1.6244 O   0  0  0  0  0  0  0  0  0  0  0  0
   -4.2872    1.7812    2.1168 C   0  0  0  0  0  0  0  0  0  0  0  0
   -4.8579    2.6169    0.9706 C   0  0  0  0  0  0  0  0  0  0  0  0
   -5.5570    3.7672    1.4467 O   0  0  0  0  0  0  0  0  0  0  0  0
   -4.6963    4.8656    1.7183 C   0  0  0  0  0  0  0  0  0  0  0  0
    0.4676    3.1107    1.0546 N   0  0  0  0  0  0  0  0  0  0  0  0
    1.7675    3.1004    0.7403 C   0  0  0  0  0  0  0  0  0  0  0  0
    2.4931    2.0247    0.4273 N   0  0  0  0  0  0  0  0  0  0  0  0
    1.8558    0.8413    0.4261 C   0  0  0  0  0  0  0  0  0  0  0  0
    2.5894   -0.3466    0.1519 N   0  0  0  0  0  0  0  0  0  0  0  0
    3.8673   -0.4657   -0.4421 C   0  0  0  0  0  0  0  0  0  0  0  0
    4.6318   -1.6153   -0.1851 C   0  0  0  0  0  0  0  0  0  0  0  0
    5.8694   -1.8129   -0.8033 C   0  0  0  0  0  0  0  0  0  0  0  0
    6.3509   -0.8729   -1.7114 C   0  0  0  0  0  0  0  0  0  0  0  0
    5.5889    0.2566   -2.0087 C   0  0  0  0  0  0  0  0  0  0  0  0
    4.3503    0.4494   -1.3865 C   0  0  0  0  0  0  0  0  0  0  0  0
    6.0696    1.2129   -2.9589 C   0  0  0  0  0  0  0  0  0  0  0  0
    6.4721    2.0157   -3.7561 C   0  0  0  0  0  0  0  0  0  0  0  0
    0.1997   -3.1224   -2.5730 H   0  0  0  0  0  0  0  0  0  0  0  0
    0.4897   -3.7453   -0.9167 H   0  0  0  0  0  0  0  0  0  0  0  0
    0.3111   -4.8696   -2.2780 H   0  0  0  0  0  0  0  0  0  0  0  0
   -3.0447   -2.7676   -1.4051 H   0  0  0  0  0  0  0  0  0  0  0  0
   -1.5180   -1.9257   -1.5424 H   0  0  0  0  0  0  0  0  0  0  0  0
   -0.9293   -3.0695    0.8139 H   0  0  0  0  0  0  0  0  0  0  0  0
   -2.5681   -3.6201    0.7914 H   0  0  0  0  0  0  0  0  0  0  0  0
    0.2478   -1.3837    0.4101 H   0  0  0  0  0  0  0  0  0  0  0  0
   -1.9780    2.8598    1.5897 H   0  0  0  0  0  0  0  0  0  0  0  0
   -5.1259    1.4126    2.7202 H   0  0  0  0  0  0  0  0  0  0  0  0
   -3.6814    2.3620    2.8209 H   0  0  0  0  0  0  0  0  0  0  0  0
   -4.0888    2.9036    0.2443 H   0  0  0  0  0  0  0  0  0  0  0  0
   -5.5776    2.0040    0.4156 H   0  0  0  0  0  0  0  0  0  0  0  0
   -5.3095    5.7046    2.0581 H   0  0  0  0  0  0  0  0  0  0  0  0
   -4.1653    5.1694    0.8110 H   0  0  0  0  0  0  0  0  0  0  0  0
   -3.9815    4.6184    2.5076 H   0  0  0  0  0  0  0  0  0  0  0  0
    2.2822    4.0552    0.7433 H   0  0  0  0  0  0  0  0  0  0  0  0
    2.4954   -0.9696    0.9480 H   0  0  0  0  0  0  0  0  0  0  0  0
    4.2731   -2.3716    0.5085 H   0  0  0  0  0  0  0  0  0  0  0  0
    6.4542   -2.7015   -0.5803 H   0  0  0  0  0  0  0  0  0  0  0  0
    7.3136   -1.0301   -2.1916 H   0  0  0  0  0  0  0  0  0  0  0  0
    3.7595    1.3228   -1.6503 H   0  0  0  0  0  0  0  0  0  0  0  0
    6.8274    2.7291   -4.4625 H   0  0  0  0  0  0  0  0  0  0  0  0
  1  2  1  0
  2  3  1  0
  3  4  1  0
  4  5  1  0
  5  6  1  0
  6  7  2  0
  7  8  1  0
  8  9  2  0
  9 10  1  0
 10 11  2  0
 11 12  1  0
 12 13  1  0
 13 14  1  0
 14 15  1  0
 15 16  1  0
  9 17  1  0
 17 18  2  0
 18 19  1  0
 19 20  2  0
 20 21  1  0
 21 22  1  0
 22 23  2  0
 23 24  1  0
 24 25  2  0
 25 26  1  0
 26 27  2  0
 26 28  1  0
 28 29  3  0
 11  6  1  0
 20  8  1  0
 27 22  1  0
  1 30  1  0
  1 31  1  0
  1 32  1  0
  3 33  1  0
  3 34  1  0
  4 35  1  0
  4 36  1  0
  7 37  1  0
 10 38  1  0
 13 39  1  0
 13 40  1  0
 14 41  1  0
 14 42  1  0
 16 43  1  0
 16 44  1  0
 16 45  1  0
 18 46  1  0
 21 47  1  0
 23 48  1  0
 24 49  1  0
 25 50  1  0
 27 51  1  0
 29 52  1  0
M  END
>  <energy_abs>  (125) 
62.61748718359617

>  <SMILES>  (125) 
COCCOc1cc2c(cc1OCCOC)ncnc2Nc3cccc(c3)C#C

>  <cluster_no>  (125) 
125

>  <fda_drugs_id>  (125) 
AAKJLRGGTJKAMG-UHFFFAOYSA-N

>  <initial_conformation_id>  (125) 
175

>  <minimize_method>  (125) 
MMFF

$$$$

     RDKit          3D

 52 54  0  0  0  0  0  0  0  0999 V2000
   -2.5383   -4.7747   -0.4360 C   0  0  0  0  0  0  0  0  0  0  0  0
   -3.3638   -3.6524   -0.7124 O   0  0  0  0  0  0  0  0  0  0  0  0
   -2.8156   -2.7617   -1.6880 C   0  0  0  0  0  0  0  0  0  0  0  0
   -1.6990   -1.8699   -1.1335 C   0  0  0  0  0  0  0  0  0  0  0  0
   -2.2477   -1.0167   -0.1261 O   0  0  0  0  0  0  0  0  0  0  0  0
   -1.4239   -0.1116    0.4818 C   0  0  0  0  0  0  0  0  0  0  0  0
   -0.0699    0.0538    0.1851 C   0  0  0  0  0  0  0  0  0  0  0  0
    0.7310    1.0029    0.8794 C   0  0  0  0  0  0  0  0  0  0  0  0
    0.1525    1.7985    1.8753 C   0  0  0  0  0  0  0  0  0  0  0  0
   -1.1898    1.6184    2.1692 C   0  0  0  0  0  0  0  0  0  0  0  0
   -1.9820    0.6944    1.4797 C   0  0  0  0  0  0  0  0  0  0  0  0
   -3.2819    0.6206    1.9101 O   0  0  0  0  0  0  0  0  0  0  0  0
   -4.2557    0.6982    0.8602 C   0  0  0  0  0  0  0  0  0  0  0  0
   -5.4883    1.4397    1.3851 C   0  0  0  0  0  0  0  0  0  0  0  0
   -5.2380    2.8150    1.7010 O   0  0  0  0  0  0  0  0  0  0  0  0
   -5.0624    3.6414    0.5588 C   0  0  0  0  0  0  0  0  0  0  0  0
    0.8398    2.7236    2.5512 N   0  0  0  0  0  0  0  0  0  0  0  0
    2.1280    2.8724    2.2282 C   0  0  0  0  0  0  0  0  0  0  0  0
    2.7945    2.1749    1.3053 N   0  0  0  0  0  0  0  0  0  0  0  0
    2.1021    1.2327    0.6417 C   0  0  0  0  0  0  0  0  0  0  0  0
    2.7761    0.4129   -0.3060 N   0  0  0  0  0  0  0  0  0  0  0  0
    4.0279    0.6368   -0.9239 C   0  0  0  0  0  0  0  0  0  0  0  0
    4.5204    1.9216   -1.1867 C   0  0  0  0  0  0  0  0  0  0  0  0
    5.7245    2.1079   -1.8720 C   0  0  0  0  0  0  0  0  0  0  0  0
    6.4471    1.0055   -2.3261 C   0  0  0  0  0  0  0  0  0  0  0  0
    5.9549   -0.2810   -2.1088 C   0  0  0  0  0  0  0  0  0  0  0  0
    4.7480   -0.4607   -1.4234 C   0  0  0  0  0  0  0  0  0  0  0  0
    6.6706   -1.4169   -2.6040 C   0  0  0  0  0  0  0  0  0  0  0  0
    7.2576   -2.3712   -3.0360 C   0  0  0  0  0  0  0  0  0  0  0  0
   -3.0636   -5.4194    0.2735 H   0  0  0  0  0  0  0  0  0  0  0  0
   -1.5940   -4.4667    0.0187 H   0  0  0  0  0  0  0  0  0  0  0  0
   -2.3484   -5.3485   -1.3484 H   0  0  0  0  0  0  0  0  0  0  0  0
   -3.6447   -2.1277   -2.0198 H   0  0  0  0  0  0  0  0  0  0  0  0
   -2.4632   -3.3315   -2.5551 H   0  0  0  0  0  0  0  0  0  0  0  0
   -1.3045   -1.2626   -1.9562 H   0  0  0  0  0  0  0  0  0  0  0  0
   -0.9001   -2.4810   -0.7021 H   0  0  0  0  0  0  0  0  0  0  0  0
    0.3969   -0.5352   -0.5974 H   0  0  0  0  0  0  0  0  0  0  0  0
   -1.6463    2.2243    2.9494 H   0  0  0  0  0  0  0  0  0  0  0  0
   -3.8574    1.2087   -0.0245 H   0  0  0  0  0  0  0  0  0  0  0  0
   -4.5544   -0.3203    0.5874 H   0  0  0  0  0  0  0  0  0  0  0  0
   -5.8218    0.9692    2.3169 H   0  0  0  0  0  0  0  0  0  0  0  0
   -6.3136    1.3756    0.6664 H   0  0  0  0  0  0  0  0  0  0  0  0
   -5.9020    3.5316   -0.1357 H   0  0  0  0  0  0  0  0  0  0  0  0
   -5.0230    4.6829    0.8926 H   0  0  0  0  0  0  0  0  0  0  0  0
   -4.1198    3.4143    0.0537 H   0  0  0  0  0  0  0  0  0  0  0  0
    2.6858    3.6279    2.7697 H   0  0  0  0  0  0  0  0  0  0  0  0
    2.6775   -0.5543   -0.0148 H   0  0  0  0  0  0  0  0  0  0  0  0
    3.9672    2.7996   -0.8622 H   0  0  0  0  0  0  0  0  0  0  0  0
    6.0921    3.1148   -2.0551 H   0  0  0  0  0  0  0  0  0  0  0  0
    7.3811    1.1566   -2.8611 H   0  0  0  0  0  0  0  0  0  0  0  0
    4.3717   -1.4701   -1.2772 H   0  0  0  0  0  0  0  0  0  0  0  0
    7.7769   -3.2161   -3.4241 H   0  0  0  0  0  0  0  0  0  0  0  0
  1  2  1  0
  2  3  1  0
  3  4  1  0
  4  5  1  0
  5  6  1  0
  6  7  2  0
  7  8  1  0
  8  9  2  0
  9 10  1  0
 10 11  2  0
 11 12  1  0
 12 13  1  0
 13 14  1  0
 14 15  1  0
 15 16  1  0
  9 17  1  0
 17 18  2  0
 18 19  1  0
 19 20  2  0
 20 21  1  0
 21 22  1  0
 22 23  2  0
 23 24  1  0
 24 25  2  0
 25 26  1  0
 26 27  2  0
 26 28  1  0
 28 29  3  0
 11  6  1  0
 20  8  1  0
 27 22  1  0
  1 30  1  0
  1 31  1  0
  1 32  1  0
  3 33  1  0
  3 34  1  0
  4 35  1  0
  4 36  1  0
  7 37  1  0
 10 38  1  0
 13 39  1  0
 13 40  1  0
 14 41  1  0
 14 42  1  0
 16 43  1  0
 16 44  1  0
 16 45  1  0
 18 46  1  0
 21 47  1  0
 23 48  1  0
 24 49  1  0
 25 50  1  0
 27 51  1  0
 29 52  1  0
M  END
>  <energy_abs>  (126) 
62.37746478817101

>  <SMILES>  (126) 
COCCOc1cc2c(cc1OCCOC)ncnc2Nc3cccc(c3)C#C

>  <cluster_no>  (126) 
126

>  <fda_drugs_id>  (126) 
AAKJLRGGTJKAMG-UHFFFAOYSA-N

>  <initial_conformation_id>  (126) 
174

>  <minimize_method>  (126) 
MMFF

$$$$

     RDKit          3D

 52 54  0  0  0  0  0  0  0  0999 V2000
   -2.5022   -5.1998   -1.0571 C   0  0  0  0  0  0  0  0  0  0  0  0
   -2.9533   -4.0371   -1.7387 O   0  0  0  0  0  0  0  0  0  0  0  0
   -3.2668   -2.9611   -0.8534 C   0  0  0  0  0  0  0  0  0  0  0  0
   -2.0298   -2.1357   -0.5014 C   0  0  0  0  0  0  0  0  0  0  0  0
   -2.4217   -1.0963    0.3918 O   0  0  0  0  0  0  0  0  0  0  0  0
   -1.4956   -0.1378    0.7124 C   0  0  0  0  0  0  0  0  0  0  0  0
   -0.1370   -0.2142    0.4014 C   0  0  0  0  0  0  0  0  0  0  0  0
    0.7589    0.8183    0.7806 C   0  0  0  0  0  0  0  0  0  0  0  0
    0.2658    1.9372    1.4613 C   0  0  0  0  0  0  0  0  0  0  0  0
   -1.0873    1.9968    1.7707 C   0  0  0  0  0  0  0  0  0  0  0  0
   -1.9768    0.9785    1.4149 C   0  0  0  0  0  0  0  0  0  0  0  0
   -3.3197    0.9753    1.6895 O   0  0  0  0  0  0  0  0  0  0  0  0
   -3.9083    2.0645    2.4011 C   0  0  0  0  0  0  0  0  0  0  0  0
   -4.2819    3.2281    1.4745 C   0  0  0  0  0  0  0  0  0  0  0  0
   -5.1905    2.8724    0.4285 O   0  0  0  0  0  0  0  0  0  0  0  0
   -6.5030    2.5771    0.8811 C   0  0  0  0  0  0  0  0  0  0  0  0
    1.0428    2.9582    1.8319 N   0  0  0  0  0  0  0  0  0  0  0  0
    2.3382    2.8747    1.5128 C   0  0  0  0  0  0  0  0  0  0  0  0
    2.9285    1.8611    0.8767 N   0  0  0  0  0  0  0  0  0  0  0  0
    2.1449    0.8289    0.5178 C   0  0  0  0  0  0  0  0  0  0  0  0
    2.7292   -0.2981   -0.1234 N   0  0  0  0  0  0  0  0  0  0  0  0
    4.0070   -0.4012   -0.7208 C   0  0  0  0  0  0  0  0  0  0  0  0
    4.5986   -1.6688   -0.8450 C   0  0  0  0  0  0  0  0  0  0  0  0
    5.8297   -1.8323   -1.4860 C   0  0  0  0  0  0  0  0  0  0  0  0
    6.4781   -0.7299   -2.0375 C   0  0  0  0  0  0  0  0  0  0  0  0
    5.8886    0.5314   -1.9581 C   0  0  0  0  0  0  0  0  0  0  0  0
    4.6556    0.6890   -1.3150 C   0  0  0  0  0  0  0  0  0  0  0  0
    6.5404    1.6627   -2.5445 C   0  0  0  0  0  0  0  0  0  0  0  0
    7.0862    2.6125   -3.0365 C   0  0  0  0  0  0  0  0  0  0  0  0
   -1.5798   -4.9986   -0.5059 H   0  0  0  0  0  0  0  0  0  0  0  0
   -3.2755   -5.5690   -0.3766 H   0  0  0  0  0  0  0  0  0  0  0  0
   -2.2976   -5.9745   -1.8012 H   0  0  0  0  0  0  0  0  0  0  0  0
   -3.9885   -2.3149   -1.3663 H   0  0  0  0  0  0  0  0  0  0  0  0
   -3.7744   -3.3260    0.0482 H   0  0  0  0  0  0  0  0  0  0  0  0
   -1.6045   -1.7234   -1.4249 H   0  0  0  0  0  0  0  0  0  0  0  0
   -1.2795   -2.7750   -0.0231 H   0  0  0  0  0  0  0  0  0  0  0  0
    0.2530   -1.0634   -0.1495 H   0  0  0  0  0  0  0  0  0  0  0  0
   -1.4238    2.8823    2.2990 H   0  0  0  0  0  0  0  0  0  0  0  0
   -3.2771    2.3950    3.2333 H   0  0  0  0  0  0  0  0  0  0  0  0
   -4.8142    1.6622    2.8658 H   0  0  0  0  0  0  0  0  0  0  0  0
   -4.7040    4.0563    2.0551 H   0  0  0  0  0  0  0  0  0  0  0  0
   -3.3852    3.6067    0.9748 H   0  0  0  0  0  0  0  0  0  0  0  0
   -6.8917    3.3857    1.5072 H   0  0  0  0  0  0  0  0  0  0  0  0
   -6.5222    1.6304    1.4270 H   0  0  0  0  0  0  0  0  0  0  0  0
   -7.1502    2.4751    0.0056 H   0  0  0  0  0  0  0  0  0  0  0  0
    2.9707    3.7071    1.8016 H   0  0  0  0  0  0  0  0  0  0  0  0
    2.5068   -1.1281    0.4161 H   0  0  0  0  0  0  0  0  0  0  0  0
    4.1064   -2.5481   -0.4375 H   0  0  0  0  0  0  0  0  0  0  0  0
    6.2783   -2.8194   -1.5602 H   0  0  0  0  0  0  0  0  0  0  0  0
    7.4347   -0.8605   -2.5373 H   0  0  0  0  0  0  0  0  0  0  0  0
    4.1993    1.6751   -1.2874 H   0  0  0  0  0  0  0  0  0  0  0  0
    7.5677    3.4566   -3.4720 H   0  0  0  0  0  0  0  0  0  0  0  0
  1  2  1  0
  2  3  1  0
  3  4  1  0
  4  5  1  0
  5  6  1  0
  6  7  2  0
  7  8  1  0
  8  9  2  0
  9 10  1  0
 10 11  2  0
 11 12  1  0
 12 13  1  0
 13 14  1  0
 14 15  1  0
 15 16  1  0
  9 17  1  0
 17 18  2  0
 18 19  1  0
 19 20  2  0
 20 21  1  0
 21 22  1  0
 22 23  2  0
 23 24  1  0
 24 25  2  0
 25 26  1  0
 26 27  2  0
 26 28  1  0
 28 29  3  0
 11  6  1  0
 20  8  1  0
 27 22  1  0
  1 30  1  0
  1 31  1  0
  1 32  1  0
  3 33  1  0
  3 34  1  0
  4 35  1  0
  4 36  1  0
  7 37  1  0
 10 38  1  0
 13 39  1  0
 13 40  1  0
 14 41  1  0
 14 42  1  0
 16 43  1  0
 16 44  1  0
 16 45  1  0
 18 46  1  0
 21 47  1  0
 23 48  1  0
 24 49  1  0
 25 50  1  0
 27 51  1  0
 29 52  1  0
M  END
>  <energy_abs>  (127) 
63.645147229770984

>  <SMILES>  (127) 
COCCOc1cc2c(cc1OCCOC)ncnc2Nc3cccc(c3)C#C

>  <cluster_no>  (127) 
127

>  <fda_drugs_id>  (127) 
AAKJLRGGTJKAMG-UHFFFAOYSA-N

>  <initial_conformation_id>  (127) 
173

>  <minimize_method>  (127) 
MMFF

$$$$

     RDKit          3D

 52 54  0  0  0  0  0  0  0  0999 V2000
   -2.9806   -5.3695   -1.8655 C   0  0  0  0  0  0  0  0  0  0  0  0
   -2.0240   -4.3566   -1.5776 O   0  0  0  0  0  0  0  0  0  0  0  0
   -2.6432   -3.2056   -1.0081 C   0  0  0  0  0  0  0  0  0  0  0  0
   -1.5834   -2.1465   -0.7259 C   0  0  0  0  0  0  0  0  0  0  0  0
   -2.2229   -1.0124   -0.1460 O   0  0  0  0  0  0  0  0  0  0  0  0
   -1.4257   -0.0213    0.3612 C   0  0  0  0  0  0  0  0  0  0  0  0
   -0.0601    0.1063    0.1003 C   0  0  0  0  0  0  0  0  0  0  0  0
    0.6968    1.1654    0.6643 C   0  0  0  0  0  0  0  0  0  0  0  0
    0.0537    2.1109    1.4715 C   0  0  0  0  0  0  0  0  0  0  0  0
   -1.3067    1.9777    1.7136 C   0  0  0  0  0  0  0  0  0  0  0  0
   -2.0542    0.9228    1.1828 C   0  0  0  0  0  0  0  0  0  0  0  0
   -3.4035    0.7679    1.3746 O   0  0  0  0  0  0  0  0  0  0  0  0
   -3.9727    1.2756    2.5864 C   0  0  0  0  0  0  0  0  0  0  0  0
   -4.6856    2.6063    2.3427 C   0  0  0  0  0  0  0  0  0  0  0  0
   -5.9218    2.3689    1.6581 O   0  0  0  0  0  0  0  0  0  0  0  0
   -6.6095    3.5818    1.3805 C   0  0  0  0  0  0  0  0  0  0  0  0
    0.6919    3.1481    2.0179 N   0  0  0  0  0  0  0  0  0  0  0  0
    1.9975    3.2569    1.7543 C   0  0  0  0  0  0  0  0  0  0  0  0
    2.7229    2.4219    1.0089 N   0  0  0  0  0  0  0  0  0  0  0  0
    2.0787    1.3729    0.4674 C   0  0  0  0  0  0  0  0  0  0  0  0
    2.8040    0.4406   -0.3216 N   0  0  0  0  0  0  0  0  0  0  0  0
    4.0902    0.5654   -0.8925 C   0  0  0  0  0  0  0  0  0  0  0  0
    4.6582    1.7994   -1.2296 C   0  0  0  0  0  0  0  0  0  0  0  0
    5.9065    1.8750   -1.8552 C   0  0  0  0  0  0  0  0  0  0  0  0
    6.5941    0.7098   -2.1849 C   0  0  0  0  0  0  0  0  0  0  0  0
    6.0292   -0.5300   -1.8937 C   0  0  0  0  0  0  0  0  0  0  0  0
    4.7803   -0.5990   -1.2655 C   0  0  0  0  0  0  0  0  0  0  0  0
    6.7171   -1.7327   -2.2479 C   0  0  0  0  0  0  0  0  0  0  0  0
    7.2917   -2.7454   -2.5409 C   0  0  0  0  0  0  0  0  0  0  0  0
   -2.4594   -6.2241   -2.3019 H   0  0  0  0  0  0  0  0  0  0  0  0
   -3.4809   -5.6957   -0.9508 H   0  0  0  0  0  0  0  0  0  0  0  0
   -3.7181   -5.0058   -2.5854 H   0  0  0  0  0  0  0  0  0  0  0  0
   -3.1512   -3.4768   -0.0770 H   0  0  0  0  0  0  0  0  0  0  0  0
   -3.3964   -2.8056   -1.6955 H   0  0  0  0  0  0  0  0  0  0  0  0
   -1.0891   -1.8728   -1.6670 H   0  0  0  0  0  0  0  0  0  0  0  0
   -0.8333   -2.5653   -0.0429 H   0  0  0  0  0  0  0  0  0  0  0  0
    0.4364   -0.5933   -0.5616 H   0  0  0  0  0  0  0  0  0  0  0  0
   -1.7762    2.7421    2.3229 H   0  0  0  0  0  0  0  0  0  0  0  0
   -3.2259    1.3601    3.3852 H   0  0  0  0  0  0  0  0  0  0  0  0
   -4.7042    0.5279    2.9161 H   0  0  0  0  0  0  0  0  0  0  0  0
   -4.0674    3.2719    1.7333 H   0  0  0  0  0  0  0  0  0  0  0  0
   -4.9048    3.0835    3.3037 H   0  0  0  0  0  0  0  0  0  0  0  0
   -7.5282    3.3408    0.8385 H   0  0  0  0  0  0  0  0  0  0  0  0
   -5.9969    4.2375    0.7536 H   0  0  0  0  0  0  0  0  0  0  0  0
   -6.8752    4.0922    2.3119 H   0  0  0  0  0  0  0  0  0  0  0  0
    2.5175    4.1030    2.1906 H   0  0  0  0  0  0  0  0  0  0  0  0
    2.6474   -0.4953    0.0391 H   0  0  0  0  0  0  0  0  0  0  0  0
    4.1303    2.7256   -1.0176 H   0  0  0  0  0  0  0  0  0  0  0  0
    6.3324    2.8461   -2.0939 H   0  0  0  0  0  0  0  0  0  0  0  0
    7.5631    0.7754   -2.6745 H   0  0  0  0  0  0  0  0  0  0  0  0
    4.3476   -1.5758   -1.0647 H   0  0  0  0  0  0  0  0  0  0  0  0
    7.8004   -3.6459   -2.7955 H   0  0  0  0  0  0  0  0  0  0  0  0
  1  2  1  0
  2  3  1  0
  3  4  1  0
  4  5  1  0
  5  6  1  0
  6  7  2  0
  7  8  1  0
  8  9  2  0
  9 10  1  0
 10 11  2  0
 11 12  1  0
 12 13  1  0
 13 14  1  0
 14 15  1  0
 15 16  1  0
  9 17  1  0
 17 18  2  0
 18 19  1  0
 19 20  2  0
 20 21  1  0
 21 22  1  0
 22 23  2  0
 23 24  1  0
 24 25  2  0
 25 26  1  0
 26 27  2  0
 26 28  1  0
 28 29  3  0
 11  6  1  0
 20  8  1  0
 27 22  1  0
  1 30  1  0
  1 31  1  0
  1 32  1  0
  3 33  1  0
  3 34  1  0
  4 35  1  0
  4 36  1  0
  7 37  1  0
 10 38  1  0
 13 39  1  0
 13 40  1  0
 14 41  1  0
 14 42  1  0
 16 43  1  0
 16 44  1  0
 16 45  1  0
 18 46  1  0
 21 47  1  0
 23 48  1  0
 24 49  1  0
 25 50  1  0
 27 51  1  0
 29 52  1  0
M  END
>  <energy_abs>  (128) 
59.643101348536646

>  <SMILES>  (128) 
COCCOc1cc2c(cc1OCCOC)ncnc2Nc3cccc(c3)C#C

>  <cluster_no>  (128) 
128

>  <fda_drugs_id>  (128) 
AAKJLRGGTJKAMG-UHFFFAOYSA-N

>  <initial_conformation_id>  (128) 
172

>  <minimize_method>  (128) 
MMFF

$$$$

     RDKit          3D

 52 54  0  0  0  0  0  0  0  0999 V2000
   -1.7663   -3.6638   -2.9210 C   0  0  0  0  0  0  0  0  0  0  0  0
   -2.0062   -2.4401   -2.2458 O   0  0  0  0  0  0  0  0  0  0  0  0
   -3.1637   -2.5190   -1.4083 C   0  0  0  0  0  0  0  0  0  0  0  0
   -3.3260   -1.1980   -0.6588 C   0  0  0  0  0  0  0  0  0  0  0  0
   -2.3391   -1.1396    0.3856 O   0  0  0  0  0  0  0  0  0  0  0  0
   -1.6114    0.0139    0.3207 C   0  0  0  0  0  0  0  0  0  0  0  0
   -0.2787   -0.0844   -0.0595 C   0  0  0  0  0  0  0  0  0  0  0  0
    0.5343    1.0728   -0.1397 C   0  0  0  0  0  0  0  0  0  0  0  0
   -0.0061    2.3213    0.2061 C   0  0  0  0  0  0  0  0  0  0  0  0
   -1.3372    2.3927    0.5979 C   0  0  0  0  0  0  0  0  0  0  0  0
   -2.1356    1.2517    0.6733 C   0  0  0  0  0  0  0  0  0  0  0  0
   -3.4519    1.3744    1.0273 O   0  0  0  0  0  0  0  0  0  0  0  0
   -3.5832    1.3431    2.4568 C   0  0  0  0  0  0  0  0  0  0  0  0
   -5.0710    1.3192    2.8029 C   0  0  0  0  0  0  0  0  0  0  0  0
   -5.3198    1.2400    4.2066 O   0  0  0  0  0  0  0  0  0  0  0  0
   -5.1255    2.4752    4.8810 C   0  0  0  0  0  0  0  0  0  0  0  0
    0.7064    3.4496    0.1723 N   0  0  0  0  0  0  0  0  0  0  0  0
    1.9840    3.3414   -0.2088 C   0  0  0  0  0  0  0  0  0  0  0  0
    2.6071    2.2175   -0.5701 N   0  0  0  0  0  0  0  0  0  0  0  0
    1.8822    1.0849   -0.5491 C   0  0  0  0  0  0  0  0  0  0  0  0
    2.4766   -0.1323   -0.9817 N   0  0  0  0  0  0  0  0  0  0  0  0
    3.8473   -0.3971   -1.2118 C   0  0  0  0  0  0  0  0  0  0  0  0
    4.2060   -1.3806   -2.1470 C   0  0  0  0  0  0  0  0  0  0  0  0
    5.5455   -1.7130   -2.3687 C   0  0  0  0  0  0  0  0  0  0  0  0
    6.5472   -1.0844   -1.6315 C   0  0  0  0  0  0  0  0  0  0  0  0
    6.2083   -0.1311   -0.6735 C   0  0  0  0  0  0  0  0  0  0  0  0
    4.8662    0.2014   -0.4608 C   0  0  0  0  0  0  0  0  0  0  0  0
    7.2338    0.5006    0.0969 C   0  0  0  0  0  0  0  0  0  0  0  0
    8.0957    1.0380    0.7380 C   0  0  0  0  0  0  0  0  0  0  0  0
   -1.5686   -4.4618   -2.2048 H   0  0  0  0  0  0  0  0  0  0  0  0
   -0.8834   -3.5376   -3.5485 H   0  0  0  0  0  0  0  0  0  0  0  0
   -2.6156   -3.9324   -3.5570 H   0  0  0  0  0  0  0  0  0  0  0  0
   -3.0406   -3.3449   -0.7015 H   0  0  0  0  0  0  0  0  0  0  0  0
   -4.0413   -2.6978   -2.0370 H   0  0  0  0  0  0  0  0  0  0  0  0
   -4.3058   -1.1566   -0.1811 H   0  0  0  0  0  0  0  0  0  0  0  0
   -3.2408   -0.3658   -1.3675 H   0  0  0  0  0  0  0  0  0  0  0  0
    0.1197   -1.0667   -0.3003 H   0  0  0  0  0  0  0  0  0  0  0  0
   -1.7612    3.3613    0.8471 H   0  0  0  0  0  0  0  0  0  0  0  0
   -3.1117    2.2330    2.8905 H   0  0  0  0  0  0  0  0  0  0  0  0
   -3.0933    0.4577    2.8851 H   0  0  0  0  0  0  0  0  0  0  0  0
   -5.5259    0.4359    2.3415 H   0  0  0  0  0  0  0  0  0  0  0  0
   -5.5915    2.1819    2.3690 H   0  0  0  0  0  0  0  0  0  0  0  0
   -5.7179    3.2702    4.4205 H   0  0  0  0  0  0  0  0  0  0  0  0
   -4.0690    2.7472    4.8945 H   0  0  0  0  0  0  0  0  0  0  0  0
   -5.4557    2.3556    5.9177 H   0  0  0  0  0  0  0  0  0  0  0  0
    2.5683    4.2541   -0.2300 H   0  0  0  0  0  0  0  0  0  0  0  0
    1.8928   -0.5325   -1.7112 H   0  0  0  0  0  0  0  0  0  0  0  0
    3.4425   -1.8979   -2.7220 H   0  0  0  0  0  0  0  0  0  0  0  0
    5.8051   -2.4746   -3.1008 H   0  0  0  0  0  0  0  0  0  0  0  0
    7.5877   -1.3483   -1.8043 H   0  0  0  0  0  0  0  0  0  0  0  0
    4.6186    0.9360    0.3002 H   0  0  0  0  0  0  0  0  0  0  0  0
    8.8557    1.5159    1.3099 H   0  0  0  0  0  0  0  0  0  0  0  0
  1  2  1  0
  2  3  1  0
  3  4  1  0
  4  5  1  0
  5  6  1  0
  6  7  2  0
  7  8  1  0
  8  9  2  0
  9 10  1  0
 10 11  2  0
 11 12  1  0
 12 13  1  0
 13 14  1  0
 14 15  1  0
 15 16  1  0
  9 17  1  0
 17 18  2  0
 18 19  1  0
 19 20  2  0
 20 21  1  0
 21 22  1  0
 22 23  2  0
 23 24  1  0
 24 25  2  0
 25 26  1  0
 26 27  2  0
 26 28  1  0
 28 29  3  0
 11  6  1  0
 20  8  1  0
 27 22  1  0
  1 30  1  0
  1 31  1  0
  1 32  1  0
  3 33  1  0
  3 34  1  0
  4 35  1  0
  4 36  1  0
  7 37  1  0
 10 38  1  0
 13 39  1  0
 13 40  1  0
 14 41  1  0
 14 42  1  0
 16 43  1  0
 16 44  1  0
 16 45  1  0
 18 46  1  0
 21 47  1  0
 23 48  1  0
 24 49  1  0
 25 50  1  0
 27 51  1  0
 29 52  1  0
M  END
>  <energy_abs>  (129) 
57.899409294906285

>  <SMILES>  (129) 
COCCOc1cc2c(cc1OCCOC)ncnc2Nc3cccc(c3)C#C

>  <cluster_no>  (129) 
129

>  <fda_drugs_id>  (129) 
AAKJLRGGTJKAMG-UHFFFAOYSA-N

>  <initial_conformation_id>  (129) 
171

>  <minimize_method>  (129) 
MMFF

$$$$

     RDKit          3D

 52 54  0  0  0  0  0  0  0  0999 V2000
   -3.2342   -3.2472   -2.5151 C   0  0  0  0  0  0  0  0  0  0  0  0
   -3.4538   -3.4209   -1.1235 O   0  0  0  0  0  0  0  0  0  0  0  0
   -2.2745   -3.7647   -0.3898 C   0  0  0  0  0  0  0  0  0  0  0  0
   -1.2893   -2.6026   -0.2234 C   0  0  0  0  0  0  0  0  0  0  0  0
   -1.8905   -1.5948    0.5918 O   0  0  0  0  0  0  0  0  0  0  0  0
   -1.2395   -0.3939    0.7099 C   0  0  0  0  0  0  0  0  0  0  0  0
    0.0927   -0.1804    0.3534 C   0  0  0  0  0  0  0  0  0  0  0  0
    0.6954    1.0942    0.5086 C   0  0  0  0  0  0  0  0  0  0  0  0
   -0.0650    2.1557    1.0122 C   0  0  0  0  0  0  0  0  0  0  0  0
   -1.3859    1.9253    1.3776 C   0  0  0  0  0  0  0  0  0  0  0  0
   -1.9839    0.6678    1.2472 C   0  0  0  0  0  0  0  0  0  0  0  0
   -3.2789    0.3747    1.5873 O   0  0  0  0  0  0  0  0  0  0  0  0
   -4.0830    1.3632    2.2257 C   0  0  0  0  0  0  0  0  0  0  0  0
   -4.8249    2.2195    1.1991 C   0  0  0  0  0  0  0  0  0  0  0  0
   -5.5893    3.2564    1.8160 O   0  0  0  0  0  0  0  0  0  0  0  0
   -6.8409    2.8023    2.3143 C   0  0  0  0  0  0  0  0  0  0  0  0
    0.4272    3.3882    1.1589 N   0  0  0  0  0  0  0  0  0  0  0  0
    1.6987    3.5778    0.7931 C   0  0  0  0  0  0  0  0  0  0  0  0
    2.5258    2.6484    0.3099 N   0  0  0  0  0  0  0  0  0  0  0  0
    2.0311    1.4051    0.1783 C   0  0  0  0  0  0  0  0  0  0  0  0
    2.8815    0.3612   -0.2817 N   0  0  0  0  0  0  0  0  0  0  0  0
    4.1383    0.4724   -0.9206 C   0  0  0  0  0  0  0  0  0  0  0  0
    4.4792    1.5597   -1.7343 C   0  0  0  0  0  0  0  0  0  0  0  0
    5.7026    1.6018   -2.4097 C   0  0  0  0  0  0  0  0  0  0  0  0
    6.5964    0.5389   -2.3020 C   0  0  0  0  0  0  0  0  0  0  0  0
    6.2602   -0.5704   -1.5279 C   0  0  0  0  0  0  0  0  0  0  0  0
    5.0344   -0.6069   -0.8534 C   0  0  0  0  0  0  0  0  0  0  0  0
    7.1646   -1.6750   -1.4282 C   0  0  0  0  0  0  0  0  0  0  0  0
    7.9242   -2.6013   -1.3444 C   0  0  0  0  0  0  0  0  0  0  0  0
   -2.6421   -2.3490   -2.7079 H   0  0  0  0  0  0  0  0  0  0  0  0
   -4.2062   -3.1222   -3.0003 H   0  0  0  0  0  0  0  0  0  0  0  0
   -2.7432   -4.1255   -2.9448 H   0  0  0  0  0  0  0  0  0  0  0  0
   -2.6150   -4.0887    0.5996 H   0  0  0  0  0  0  0  0  0  0  0  0
   -1.7843   -4.6196   -0.8692 H   0  0  0  0  0  0  0  0  0  0  0  0
   -0.3908   -2.9812    0.2774 H   0  0  0  0  0  0  0  0  0  0  0  0
   -1.0221   -2.1878   -1.2008 H   0  0  0  0  0  0  0  0  0  0  0  0
    0.6862   -0.9890   -0.0594 H   0  0  0  0  0  0  0  0  0  0  0  0
   -1.9392    2.7766    1.7624 H   0  0  0  0  0  0  0  0  0  0  0  0
   -3.5264    1.9656    2.9531 H   0  0  0  0  0  0  0  0  0  0  0  0
   -4.8173    0.8162    2.8277 H   0  0  0  0  0  0  0  0  0  0  0  0
   -4.1038    2.7075    0.5353 H   0  0  0  0  0  0  0  0  0  0  0  0
   -5.4560    1.5998    0.5501 H   0  0  0  0  0  0  0  0  0  0  0  0
   -6.7016    2.0741    3.1176 H   0  0  0  0  0  0  0  0  0  0  0  0
   -7.3786    3.6631    2.7211 H   0  0  0  0  0  0  0  0  0  0  0  0
   -7.4413    2.3679    1.5093 H   0  0  0  0  0  0  0  0  0  0  0  0
    2.0972    4.5806    0.9028 H   0  0  0  0  0  0  0  0  0  0  0  0
    2.8891   -0.3753    0.4169 H   0  0  0  0  0  0  0  0  0  0  0  0
    3.7909    2.3919   -1.8577 H   0  0  0  0  0  0  0  0  0  0  0  0
    5.9506    2.4631   -3.0244 H   0  0  0  0  0  0  0  0  0  0  0  0
    7.5454    0.5776   -2.8307 H   0  0  0  0  0  0  0  0  0  0  0  0
    4.7833   -1.4869   -0.2667 H   0  0  0  0  0  0  0  0  0  0  0  0
    8.6004   -3.4209   -1.2711 H   0  0  0  0  0  0  0  0  0  0  0  0
  1  2  1  0
  2  3  1  0
  3  4  1  0
  4  5  1  0
  5  6  1  0
  6  7  2  0
  7  8  1  0
  8  9  2  0
  9 10  1  0
 10 11  2  0
 11 12  1  0
 12 13  1  0
 13 14  1  0
 14 15  1  0
 15 16  1  0
  9 17  1  0
 17 18  2  0
 18 19  1  0
 19 20  2  0
 20 21  1  0
 21 22  1  0
 22 23  2  0
 23 24  1  0
 24 25  2  0
 25 26  1  0
 26 27  2  0
 26 28  1  0
 28 29  3  0
 11  6  1  0
 20  8  1  0
 27 22  1  0
  1 30  1  0
  1 31  1  0
  1 32  1  0
  3 33  1  0
  3 34  1  0
  4 35  1  0
  4 36  1  0
  7 37  1  0
 10 38  1  0
 13 39  1  0
 13 40  1  0
 14 41  1  0
 14 42  1  0
 16 43  1  0
 16 44  1  0
 16 45  1  0
 18 46  1  0
 21 47  1  0
 23 48  1  0
 24 49  1  0
 25 50  1  0
 27 51  1  0
 29 52  1  0
M  END
>  <energy_abs>  (130) 
63.13224481609357

>  <SMILES>  (130) 
COCCOc1cc2c(cc1OCCOC)ncnc2Nc3cccc(c3)C#C

>  <cluster_no>  (130) 
130

>  <fda_drugs_id>  (130) 
AAKJLRGGTJKAMG-UHFFFAOYSA-N

>  <initial_conformation_id>  (130) 
170

>  <minimize_method>  (130) 
MMFF

$$$$

     RDKit          3D

 52 54  0  0  0  0  0  0  0  0999 V2000
   -1.3785   -5.1395   -1.1022 C   0  0  0  0  0  0  0  0  0  0  0  0
   -0.7212   -3.9244   -1.4391 O   0  0  0  0  0  0  0  0  0  0  0  0
   -1.5650   -2.7792   -1.3142 C   0  0  0  0  0  0  0  0  0  0  0  0
   -1.7418   -2.3438    0.1409 C   0  0  0  0  0  0  0  0  0  0  0  0
   -2.4138   -1.0893    0.2215 O   0  0  0  0  0  0  0  0  0  0  0  0
   -1.6787    0.0674    0.2386 C   0  0  0  0  0  0  0  0  0  0  0  0
   -0.3075    0.1448   -0.0111 C   0  0  0  0  0  0  0  0  0  0  0  0
    0.3738    1.3893    0.0113 C   0  0  0  0  0  0  0  0  0  0  0  0
   -0.3413    2.5552    0.3065 C   0  0  0  0  0  0  0  0  0  0  0  0
   -1.7066    2.4664    0.5463 C   0  0  0  0  0  0  0  0  0  0  0  0
   -2.3907    1.2471    0.5088 C   0  0  0  0  0  0  0  0  0  0  0  0
   -3.7337    1.0948    0.7408 O   0  0  0  0  0  0  0  0  0  0  0  0
   -4.5662    2.2493    0.8856 C   0  0  0  0  0  0  0  0  0  0  0  0
   -4.6203    2.7257    2.3385 C   0  0  0  0  0  0  0  0  0  0  0  0
   -5.4134    1.8187    3.1114 O   0  0  0  0  0  0  0  0  0  0  0  0
   -5.4349    2.1785    4.4857 C   0  0  0  0  0  0  0  0  0  0  0  0
    0.2327    3.7592    0.3685 N   0  0  0  0  0  0  0  0  0  0  0  0
    1.5483    3.8100    0.1373 C   0  0  0  0  0  0  0  0  0  0  0  0
    2.3366    2.7749   -0.1591 N   0  0  0  0  0  0  0  0  0  0  0  0
    1.7523    1.5658   -0.2335 C   0  0  0  0  0  0  0  0  0  0  0  0
    2.5360    0.4314   -0.5801 N   0  0  0  0  0  0  0  0  0  0  0  0
    3.9437    0.3049   -0.6133 C   0  0  0  0  0  0  0  0  0  0  0  0
    4.7929    1.0514    0.2124 C   0  0  0  0  0  0  0  0  0  0  0  0
    6.1763    0.8485    0.2000 C   0  0  0  0  0  0  0  0  0  0  0  0
    6.7314   -0.1281   -0.6237 C   0  0  0  0  0  0  0  0  0  0  0  0
    5.9005   -0.9094   -1.4247 C   0  0  0  0  0  0  0  0  0  0  0  0
    4.5165   -0.7014   -1.4086 C   0  0  0  0  0  0  0  0  0  0  0  0
    6.4609   -1.9290   -2.2580 C   0  0  0  0  0  0  0  0  0  0  0  0
    6.9305   -2.7849   -2.9573 C   0  0  0  0  0  0  0  0  0  0  0  0
   -2.2676   -5.2825   -1.7237 H   0  0  0  0  0  0  0  0  0  0  0  0
   -1.6496   -5.1554   -0.0433 H   0  0  0  0  0  0  0  0  0  0  0  0
   -0.6869   -5.9650   -1.2914 H   0  0  0  0  0  0  0  0  0  0  0  0
   -1.0935   -1.9752   -1.8889 H   0  0  0  0  0  0  0  0  0  0  0  0
   -2.5362   -2.9560   -1.7927 H   0  0  0  0  0  0  0  0  0  0  0  0
   -0.8022   -2.3632    0.7058 H   0  0  0  0  0  0  0  0  0  0  0  0
   -2.3854   -3.0704    0.6501 H   0  0  0  0  0  0  0  0  0  0  0  0
    0.2659   -0.7518   -0.2213 H   0  0  0  0  0  0  0  0  0  0  0  0
   -2.2197    3.3944    0.7751 H   0  0  0  0  0  0  0  0  0  0  0  0
   -4.2647    3.0497    0.2013 H   0  0  0  0  0  0  0  0  0  0  0  0
   -5.5701    1.9382    0.5740 H   0  0  0  0  0  0  0  0  0  0  0  0
   -3.6160    2.7805    2.7711 H   0  0  0  0  0  0  0  0  0  0  0  0
   -5.0889    3.7152    2.3780 H   0  0  0  0  0  0  0  0  0  0  0  0
   -4.4261    2.1387    4.9078 H   0  0  0  0  0  0  0  0  0  0  0  0
   -5.8579    3.1795    4.6134 H   0  0  0  0  0  0  0  0  0  0  0  0
   -6.0648    1.4620    5.0197 H   0  0  0  0  0  0  0  0  0  0  0  0
    2.0201    4.7850    0.1931 H   0  0  0  0  0  0  0  0  0  0  0  0
    2.1067   -0.0354   -1.3728 H   0  0  0  0  0  0  0  0  0  0  0  0
    4.3869    1.8018    0.8856 H   0  0  0  0  0  0  0  0  0  0  0  0
    6.8159    1.4498    0.8406 H   0  0  0  0  0  0  0  0  0  0  0  0
    7.8074   -0.2820   -0.6272 H   0  0  0  0  0  0  0  0  0  0  0  0
    3.8828   -1.3323   -2.0273 H   0  0  0  0  0  0  0  0  0  0  0  0
    7.3473   -3.5439   -3.5773 H   0  0  0  0  0  0  0  0  0  0  0  0
  1  2  1  0
  2  3  1  0
  3  4  1  0
  4  5  1  0
  5  6  1  0
  6  7  2  0
  7  8  1  0
  8  9  2  0
  9 10  1  0
 10 11  2  0
 11 12  1  0
 12 13  1  0
 13 14  1  0
 14 15  1  0
 15 16  1  0
  9 17  1  0
 17 18  2  0
 18 19  1  0
 19 20  2  0
 20 21  1  0
 21 22  1  0
 22 23  2  0
 23 24  1  0
 24 25  2  0
 25 26  1  0
 26 27  2  0
 26 28  1  0
 28 29  3  0
 11  6  1  0
 20  8  1  0
 27 22  1  0
  1 30  1  0
  1 31  1  0
  1 32  1  0
  3 33  1  0
  3 34  1  0
  4 35  1  0
  4 36  1  0
  7 37  1  0
 10 38  1  0
 13 39  1  0
 13 40  1  0
 14 41  1  0
 14 42  1  0
 16 43  1  0
 16 44  1  0
 16 45  1  0
 18 46  1  0
 21 47  1  0
 23 48  1  0
 24 49  1  0
 25 50  1  0
 27 51  1  0
 29 52  1  0
M  END
>  <energy_abs>  (131) 
62.78682101832225

>  <SMILES>  (131) 
COCCOc1cc2c(cc1OCCOC)ncnc2Nc3cccc(c3)C#C

>  <cluster_no>  (131) 
131

>  <fda_drugs_id>  (131) 
AAKJLRGGTJKAMG-UHFFFAOYSA-N

>  <initial_conformation_id>  (131) 
169

>  <minimize_method>  (131) 
MMFF

$$$$

     RDKit          3D

 52 54  0  0  0  0  0  0  0  0999 V2000
   -2.2202   -5.1330   -0.2903 C   0  0  0  0  0  0  0  0  0  0  0  0
   -2.8918   -4.1774   -1.1010 O   0  0  0  0  0  0  0  0  0  0  0  0
   -3.2080   -2.9760   -0.3975 C   0  0  0  0  0  0  0  0  0  0  0  0
   -2.0299   -2.0030   -0.3729 C   0  0  0  0  0  0  0  0  0  0  0  0
   -2.4405   -0.8144    0.2993 O   0  0  0  0  0  0  0  0  0  0  0  0
   -1.5030    0.1648    0.5025 C   0  0  0  0  0  0  0  0  0  0  0  0
   -0.2210    0.1658   -0.0484 C   0  0  0  0  0  0  0  0  0  0  0  0
    0.6848    1.2280    0.2079 C   0  0  0  0  0  0  0  0  0  0  0  0
    0.2905    2.2809    1.0422 C   0  0  0  0  0  0  0  0  0  0  0  0
   -0.9910    2.2721    1.5773 C   0  0  0  0  0  0  0  0  0  0  0  0
   -1.8961    1.2390    1.3141 C   0  0  0  0  0  0  0  0  0  0  0  0
   -3.1679    1.1740    1.8244 O   0  0  0  0  0  0  0  0  0  0  0  0
   -3.7058    2.3568    2.4232 C   0  0  0  0  0  0  0  0  0  0  0  0
   -5.1870    2.1227    2.7349 C   0  0  0  0  0  0  0  0  0  0  0  0
   -6.0428    2.3442    1.6076 O   0  0  0  0  0  0  0  0  0  0  0  0
   -5.9177    1.3500    0.5983 C   0  0  0  0  0  0  0  0  0  0  0  0
    1.0971    3.2996    1.3498 N   0  0  0  0  0  0  0  0  0  0  0  0
    2.3260    3.2741    0.8243 C   0  0  0  0  0  0  0  0  0  0  0  0
    2.8152    2.3351    0.0120 N   0  0  0  0  0  0  0  0  0  0  0  0
    1.9953    1.3180   -0.3059 C   0  0  0  0  0  0  0  0  0  0  0  0
    2.4480    0.3133   -1.2052 N   0  0  0  0  0  0  0  0  0  0  0  0
    3.7727    0.0430   -1.6205 C   0  0  0  0  0  0  0  0  0  0  0  0
    3.9804   -0.6128   -2.8449 C   0  0  0  0  0  0  0  0  0  0  0  0
    5.2654   -0.9622   -3.2688 C   0  0  0  0  0  0  0  0  0  0  0  0
    6.3642   -0.6835   -2.4595 C   0  0  0  0  0  0  0  0  0  0  0  0
    6.1750   -0.0674   -1.2229 C   0  0  0  0  0  0  0  0  0  0  0  0
    4.8858    0.2805   -0.8037 C   0  0  0  0  0  0  0  0  0  0  0  0
    7.2991    0.1992   -0.3781 C   0  0  0  0  0  0  0  0  0  0  0  0
    8.2419    0.4233    0.3312 C   0  0  0  0  0  0  0  0  0  0  0  0
   -2.0388   -6.0261   -0.8945 H   0  0  0  0  0  0  0  0  0  0  0  0
   -1.2564   -4.7478    0.0531 H   0  0  0  0  0  0  0  0  0  0  0  0
   -2.8414   -5.4141    0.5655 H   0  0  0  0  0  0  0  0  0  0  0  0
   -4.0468   -2.5026   -0.9208 H   0  0  0  0  0  0  0  0  0  0  0  0
   -3.5677   -3.1936    0.6158 H   0  0  0  0  0  0  0  0  0  0  0  0
   -1.1814   -2.4610    0.1480 H   0  0  0  0  0  0  0  0  0  0  0  0
   -1.7328   -1.7800   -1.4049 H   0  0  0  0  0  0  0  0  0  0  0  0
    0.1092   -0.6564   -0.6745 H   0  0  0  0  0  0  0  0  0  0  0  0
   -1.2600    3.1024    2.2232 H   0  0  0  0  0  0  0  0  0  0  0  0
   -3.1768    2.5441    3.3643 H   0  0  0  0  0  0  0  0  0  0  0  0
   -3.6027    3.2106    1.7433 H   0  0  0  0  0  0  0  0  0  0  0  0
   -5.5017    2.8479    3.4925 H   0  0  0  0  0  0  0  0  0  0  0  0
   -5.3635    1.1183    3.1367 H   0  0  0  0  0  0  0  0  0  0  0  0
   -6.7447    1.4772   -0.1059 H   0  0  0  0  0  0  0  0  0  0  0  0
   -4.9844    1.4794    0.0446 H   0  0  0  0  0  0  0  0  0  0  0  0
   -5.9772    0.3438    1.0240 H   0  0  0  0  0  0  0  0  0  0  0  0
    2.9872    4.0953    1.0789 H   0  0  0  0  0  0  0  0  0  0  0  0
    1.8015    0.2659   -1.9864 H   0  0  0  0  0  0  0  0  0  0  0  0
    3.1390   -0.8556   -3.4889 H   0  0  0  0  0  0  0  0  0  0  0  0
    5.4074   -1.4561   -4.2264 H   0  0  0  0  0  0  0  0  0  0  0  0
    7.3624   -0.9579   -2.7915 H   0  0  0  0  0  0  0  0  0  0  0  0
    4.7560    0.7363    0.1744 H   0  0  0  0  0  0  0  0  0  0  0  0
    9.0763    0.6238    0.9617 H   0  0  0  0  0  0  0  0  0  0  0  0
  1  2  1  0
  2  3  1  0
  3  4  1  0
  4  5  1  0
  5  6  1  0
  6  7  2  0
  7  8  1  0
  8  9  2  0
  9 10  1  0
 10 11  2  0
 11 12  1  0
 12 13  1  0
 13 14  1  0
 14 15  1  0
 15 16  1  0
  9 17  1  0
 17 18  2  0
 18 19  1  0
 19 20  2  0
 20 21  1  0
 21 22  1  0
 22 23  2  0
 23 24  1  0
 24 25  2  0
 25 26  1  0
 26 27  2  0
 26 28  1  0
 28 29  3  0
 11  6  1  0
 20  8  1  0
 27 22  1  0
  1 30  1  0
  1 31  1  0
  1 32  1  0
  3 33  1  0
  3 34  1  0
  4 35  1  0
  4 36  1  0
  7 37  1  0
 10 38  1  0
 13 39  1  0
 13 40  1  0
 14 41  1  0
 14 42  1  0
 16 43  1  0
 16 44  1  0
 16 45  1  0
 18 46  1  0
 21 47  1  0
 23 48  1  0
 24 49  1  0
 25 50  1  0
 27 51  1  0
 29 52  1  0
M  END
>  <energy_abs>  (132) 
58.18220858312683

>  <SMILES>  (132) 
COCCOc1cc2c(cc1OCCOC)ncnc2Nc3cccc(c3)C#C

>  <cluster_no>  (132) 
132

>  <fda_drugs_id>  (132) 
AAKJLRGGTJKAMG-UHFFFAOYSA-N

>  <initial_conformation_id>  (132) 
168

>  <minimize_method>  (132) 
MMFF

$$$$

     RDKit          3D

 52 54  0  0  0  0  0  0  0  0999 V2000
   -4.0951   -5.0585   -0.5619 C   0  0  0  0  0  0  0  0  0  0  0  0
   -3.6669   -3.7535   -0.9284 O   0  0  0  0  0  0  0  0  0  0  0  0
   -2.9038   -3.1413    0.1099 C   0  0  0  0  0  0  0  0  0  0  0  0
   -2.4888   -1.7385   -0.3223 C   0  0  0  0  0  0  0  0  0  0  0  0
   -1.7093   -1.1523    0.7296 O   0  0  0  0  0  0  0  0  0  0  0  0
   -1.2454    0.0815    0.3654 C   0  0  0  0  0  0  0  0  0  0  0  0
    0.1166    0.2057    0.1087 C   0  0  0  0  0  0  0  0  0  0  0  0
    0.6697    1.4562   -0.2681 C   0  0  0  0  0  0  0  0  0  0  0  0
   -0.1723    2.5732   -0.3888 C   0  0  0  0  0  0  0  0  0  0  0  0
   -1.5237    2.4308   -0.1024 C   0  0  0  0  0  0  0  0  0  0  0  0
   -2.0593    1.2085    0.3040 C   0  0  0  0  0  0  0  0  0  0  0  0
   -3.4019    1.1638    0.5680 O   0  0  0  0  0  0  0  0  0  0  0  0
   -3.6430    1.0622    1.9779 C   0  0  0  0  0  0  0  0  0  0  0  0
   -5.1535    1.0646    2.2086 C   0  0  0  0  0  0  0  0  0  0  0  0
   -5.4893    0.9261    3.5893 O   0  0  0  0  0  0  0  0  0  0  0  0
   -5.4307    2.1555    4.3006 C   0  0  0  0  0  0  0  0  0  0  0  0
    0.2727    3.7748   -0.7627 N   0  0  0  0  0  0  0  0  0  0  0  0
    1.5782    3.8742   -1.0321 C   0  0  0  0  0  0  0  0  0  0  0  0
    2.4787    2.8920   -0.9478 N   0  0  0  0  0  0  0  0  0  0  0  0
    2.0307    1.6857   -0.5566 C   0  0  0  0  0  0  0  0  0  0  0  0
    2.9507    0.6109   -0.4132 N   0  0  0  0  0  0  0  0  0  0  0  0
    4.2836    0.5246   -0.8766 C   0  0  0  0  0  0  0  0  0  0  0  0
    4.7297    1.1859   -2.0274 C   0  0  0  0  0  0  0  0  0  0  0  0
    6.0373    1.0220   -2.4950 C   0  0  0  0  0  0  0  0  0  0  0  0
    6.9152    0.1699   -1.8290 C   0  0  0  0  0  0  0  0  0  0  0  0
    6.4802   -0.5267   -0.7028 C   0  0  0  0  0  0  0  0  0  0  0  0
    5.1701   -0.3590   -0.2394 C   0  0  0  0  0  0  0  0  0  0  0  0
    7.3705   -1.4183   -0.0240 C   0  0  0  0  0  0  0  0  0  0  0  0
    8.1180   -2.1655    0.5460 C   0  0  0  0  0  0  0  0  0  0  0  0
   -3.2331   -5.7052   -0.3715 H   0  0  0  0  0  0  0  0  0  0  0  0
   -4.7378   -5.0162    0.3227 H   0  0  0  0  0  0  0  0  0  0  0  0
   -4.6702   -5.4779   -1.3916 H   0  0  0  0  0  0  0  0  0  0  0  0
   -2.0128   -3.7435    0.3247 H   0  0  0  0  0  0  0  0  0  0  0  0
   -3.4980   -3.0840    1.0300 H   0  0  0  0  0  0  0  0  0  0  0  0
   -1.9019   -1.7990   -1.2483 H   0  0  0  0  0  0  0  0  0  0  0  0
   -3.3890   -1.1488   -0.5317 H   0  0  0  0  0  0  0  0  0  0  0  0
    0.7421   -0.6808    0.1753 H   0  0  0  0  0  0  0  0  0  0  0  0
   -2.1757    3.2965   -0.1900 H   0  0  0  0  0  0  0  0  0  0  0  0
   -3.2207    0.1394    2.3931 H   0  0  0  0  0  0  0  0  0  0  0  0
   -3.1793    1.9088    2.4987 H   0  0  0  0  0  0  0  0  0  0  0  0
   -5.6214    1.9585    1.7777 H   0  0  0  0  0  0  0  0  0  0  0  0
   -5.5918    0.2099    1.6801 H   0  0  0  0  0  0  0  0  0  0  0  0
   -6.1233    2.8832    3.8668 H   0  0  0  0  0  0  0  0  0  0  0  0
   -5.7307    1.9659    5.3349 H   0  0  0  0  0  0  0  0  0  0  0  0
   -4.4144    2.5581    4.3055 H   0  0  0  0  0  0  0  0  0  0  0  0
    1.9420    4.8466   -1.3458 H   0  0  0  0  0  0  0  0  0  0  0  0
    2.8578    0.2248    0.5206 H   0  0  0  0  0  0  0  0  0  0  0  0
    4.0595    1.8366   -2.5830 H   0  0  0  0  0  0  0  0  0  0  0  0
    6.3636    1.5556   -3.3837 H   0  0  0  0  0  0  0  0  0  0  0  0
    7.9299    0.0459   -2.1987 H   0  0  0  0  0  0  0  0  0  0  0  0
    4.8442   -0.9228    0.6310 H   0  0  0  0  0  0  0  0  0  0  0  0
    8.7829   -2.8267    1.0511 H   0  0  0  0  0  0  0  0  0  0  0  0
  1  2  1  0
  2  3  1  0
  3  4  1  0
  4  5  1  0
  5  6  1  0
  6  7  2  0
  7  8  1  0
  8  9  2  0
  9 10  1  0
 10 11  2  0
 11 12  1  0
 12 13  1  0
 13 14  1  0
 14 15  1  0
 15 16  1  0
  9 17  1  0
 17 18  2  0
 18 19  1  0
 19 20  2  0
 20 21  1  0
 21 22  1  0
 22 23  2  0
 23 24  1  0
 24 25  2  0
 25 26  1  0
 26 27  2  0
 26 28  1  0
 28 29  3  0
 11  6  1  0
 20  8  1  0
 27 22  1  0
  1 30  1  0
  1 31  1  0
  1 32  1  0
  3 33  1  0
  3 34  1  0
  4 35  1  0
  4 36  1  0
  7 37  1  0
 10 38  1  0
 13 39  1  0
 13 40  1  0
 14 41  1  0
 14 42  1  0
 16 43  1  0
 16 44  1  0
 16 45  1  0
 18 46  1  0
 21 47  1  0
 23 48  1  0
 24 49  1  0
 25 50  1  0
 27 51  1  0
 29 52  1  0
M  END
>  <energy_abs>  (133) 
56.674159460188456

>  <SMILES>  (133) 
COCCOc1cc2c(cc1OCCOC)ncnc2Nc3cccc(c3)C#C

>  <cluster_no>  (133) 
133

>  <fda_drugs_id>  (133) 
AAKJLRGGTJKAMG-UHFFFAOYSA-N

>  <initial_conformation_id>  (133) 
167

>  <minimize_method>  (133) 
MMFF

$$$$

     RDKit          3D

 52 54  0  0  0  0  0  0  0  0999 V2000
   -4.2611   -3.0371    0.3328 C   0  0  0  0  0  0  0  0  0  0  0  0
   -3.3790   -2.2146   -0.4180 O   0  0  0  0  0  0  0  0  0  0  0  0
   -1.9985   -2.5659   -0.2771 C   0  0  0  0  0  0  0  0  0  0  0  0
   -1.4443   -2.4953    1.1571 C   0  0  0  0  0  0  0  0  0  0  0  0
   -1.6742   -1.2463    1.8213 O   0  0  0  0  0  0  0  0  0  0  0  0
   -1.0976   -0.1531    1.2363 C   0  0  0  0  0  0  0  0  0  0  0  0
    0.2659   -0.0913    0.9597 C   0  0  0  0  0  0  0  0  0  0  0  0
    0.8300    1.0677    0.3698 C   0  0  0  0  0  0  0  0  0  0  0  0
    0.0042    2.1610    0.0697 C   0  0  0  0  0  0  0  0  0  0  0  0
   -1.3476    2.0905    0.3829 C   0  0  0  0  0  0  0  0  0  0  0  0
   -1.9092    0.9482    0.9588 C   0  0  0  0  0  0  0  0  0  0  0  0
   -3.2295    0.8586    1.3120 O   0  0  0  0  0  0  0  0  0  0  0  0
   -4.1507    1.4330    0.3806 C   0  0  0  0  0  0  0  0  0  0  0  0
   -5.5281    0.7943    0.5814 C   0  0  0  0  0  0  0  0  0  0  0  0
   -6.0887    1.0236    1.8796 O   0  0  0  0  0  0  0  0  0  0  0  0
   -6.5582    2.3484    2.0724 C   0  0  0  0  0  0  0  0  0  0  0  0
    0.4655    3.2766   -0.5012 N   0  0  0  0  0  0  0  0  0  0  0  0
    1.7709    3.3090   -0.7904 C   0  0  0  0  0  0  0  0  0  0  0  0
    2.6564    2.3393   -0.5505 N   0  0  0  0  0  0  0  0  0  0  0  0
    2.1916    1.2239    0.0396 C   0  0  0  0  0  0  0  0  0  0  0  0
    3.0979    0.1756    0.3599 N   0  0  0  0  0  0  0  0  0  0  0  0
    4.4112   -0.0263   -0.1225 C   0  0  0  0  0  0  0  0  0  0  0  0
    5.3029   -0.8002    0.6379 C   0  0  0  0  0  0  0  0  0  0  0  0
    6.5876   -1.0896    0.1708 C   0  0  0  0  0  0  0  0  0  0  0  0
    6.9938   -0.6273   -1.0792 C   0  0  0  0  0  0  0  0  0  0  0  0
    6.1108    0.1129   -1.8645 C   0  0  0  0  0  0  0  0  0  0  0  0
    4.8245    0.3976   -1.3925 C   0  0  0  0  0  0  0  0  0  0  0  0
    6.5167    0.5736   -3.1577 C   0  0  0  0  0  0  0  0  0  0  0  0
    6.8555    0.9676   -4.2397 C   0  0  0  0  0  0  0  0  0  0  0  0
   -4.0412   -4.0984    0.1775 H   0  0  0  0  0  0  0  0  0  0  0  0
   -4.2077   -2.7863    1.3932 H   0  0  0  0  0  0  0  0  0  0  0  0
   -5.2814   -2.8412   -0.0089 H   0  0  0  0  0  0  0  0  0  0  0  0
   -1.8454   -3.5749   -0.6817 H   0  0  0  0  0  0  0  0  0  0  0  0
   -1.4419   -1.8796   -0.9250 H   0  0  0  0  0  0  0  0  0  0  0  0
   -0.3801   -2.7567    1.1725 H   0  0  0  0  0  0  0  0  0  0  0  0
   -1.9447   -3.2522    1.7716 H   0  0  0  0  0  0  0  0  0  0  0  0
    0.9006   -0.9373    1.2025 H   0  0  0  0  0  0  0  0  0  0  0  0
   -1.9613    2.9633    0.1818 H   0  0  0  0  0  0  0  0  0  0  0  0
   -3.8303    1.2431   -0.6519 H   0  0  0  0  0  0  0  0  0  0  0  0
   -4.2027    2.5132    0.5494 H   0  0  0  0  0  0  0  0  0  0  0  0
   -6.2301    1.1415   -0.1873 H   0  0  0  0  0  0  0  0  0  0  0  0
   -5.4358   -0.2906    0.4788 H   0  0  0  0  0  0  0  0  0  0  0  0
   -5.7297    3.0599    2.0860 H   0  0  0  0  0  0  0  0  0  0  0  0
   -7.0590    2.3913    3.0441 H   0  0  0  0  0  0  0  0  0  0  0  0
   -7.2806    2.6205    1.2955 H   0  0  0  0  0  0  0  0  0  0  0  0
    2.1479    4.2103   -1.2620 H   0  0  0  0  0  0  0  0  0  0  0  0
    3.0360   -0.0113    1.3558 H   0  0  0  0  0  0  0  0  0  0  0  0
    5.0055   -1.1858    1.6100 H   0  0  0  0  0  0  0  0  0  0  0  0
    7.2667   -1.6815    0.7774 H   0  0  0  0  0  0  0  0  0  0  0  0
    7.9926   -0.8561   -1.4405 H   0  0  0  0  0  0  0  0  0  0  0  0
    4.1407    0.9515   -2.0312 H   0  0  0  0  0  0  0  0  0  0  0  0
    7.1532    1.3203   -5.1989 H   0  0  0  0  0  0  0  0  0  0  0  0
  1  2  1  0
  2  3  1  0
  3  4  1  0
  4  5  1  0
  5  6  1  0
  6  7  2  0
  7  8  1  0
  8  9  2  0
  9 10  1  0
 10 11  2  0
 11 12  1  0
 12 13  1  0
 13 14  1  0
 14 15  1  0
 15 16  1  0
  9 17  1  0
 17 18  2  0
 18 19  1  0
 19 20  2  0
 20 21  1  0
 21 22  1  0
 22 23  2  0
 23 24  1  0
 24 25  2  0
 25 26  1  0
 26 27  2  0
 26 28  1  0
 28 29  3  0
 11  6  1  0
 20  8  1  0
 27 22  1  0
  1 30  1  0
  1 31  1  0
  1 32  1  0
  3 33  1  0
  3 34  1  0
  4 35  1  0
  4 36  1  0
  7 37  1  0
 10 38  1  0
 13 39  1  0
 13 40  1  0
 14 41  1  0
 14 42  1  0
 16 43  1  0
 16 44  1  0
 16 45  1  0
 18 46  1  0
 21 47  1  0
 23 48  1  0
 24 49  1  0
 25 50  1  0
 27 51  1  0
 29 52  1  0
M  END
>  <energy_abs>  (134) 
65.2854552534182

>  <SMILES>  (134) 
COCCOc1cc2c(cc1OCCOC)ncnc2Nc3cccc(c3)C#C

>  <cluster_no>  (134) 
134

>  <fda_drugs_id>  (134) 
AAKJLRGGTJKAMG-UHFFFAOYSA-N

>  <initial_conformation_id>  (134) 
166

>  <minimize_method>  (134) 
MMFF

$$$$

     RDKit          3D

 52 54  0  0  0  0  0  0  0  0999 V2000
   -4.2090   -4.3399    2.2734 C   0  0  0  0  0  0  0  0  0  0  0  0
   -3.1647   -3.4415    1.9198 O   0  0  0  0  0  0  0  0  0  0  0  0
   -2.7498   -3.6238    0.5600 C   0  0  0  0  0  0  0  0  0  0  0  0
   -1.7102   -2.5594    0.2030 C   0  0  0  0  0  0  0  0  0  0  0  0
   -2.3904   -1.3099    0.0497 O   0  0  0  0  0  0  0  0  0  0  0  0
   -1.6525   -0.1874   -0.1879 C   0  0  0  0  0  0  0  0  0  0  0  0
   -0.2805   -0.1819   -0.4478 C   0  0  0  0  0  0  0  0  0  0  0  0
    0.4099    1.0235   -0.7549 C   0  0  0  0  0  0  0  0  0  0  0  0
   -0.2937    2.2333   -0.7851 C   0  0  0  0  0  0  0  0  0  0  0  0
   -1.6538    2.2148   -0.5211 C   0  0  0  0  0  0  0  0  0  0  0  0
   -2.3328    1.0329   -0.2075 C   0  0  0  0  0  0  0  0  0  0  0  0
   -3.6762    1.1878    0.0166 O   0  0  0  0  0  0  0  0  0  0  0  0
   -4.1876    0.6304    1.2346 C   0  0  0  0  0  0  0  0  0  0  0  0
   -3.4700    1.0932    2.5078 C   0  0  0  0  0  0  0  0  0  0  0  0
   -3.4261    2.5147    2.6577 O   0  0  0  0  0  0  0  0  0  0  0  0
   -4.6759    3.0884    3.0090 C   0  0  0  0  0  0  0  0  0  0  0  0
    0.2894    3.4043   -1.0572 N   0  0  0  0  0  0  0  0  0  0  0  0
    1.6048    3.3811   -1.2878 C   0  0  0  0  0  0  0  0  0  0  0  0
    2.3839    2.2976   -1.2933 N   0  0  0  0  0  0  0  0  0  0  0  0
    1.7884    1.1186   -1.0407 C   0  0  0  0  0  0  0  0  0  0  0  0
    2.5610   -0.0753   -1.0870 N   0  0  0  0  0  0  0  0  0  0  0  0
    3.9711   -0.2002   -1.1050 C   0  0  0  0  0  0  0  0  0  0  0  0
    4.5437   -1.3505   -1.6729 C   0  0  0  0  0  0  0  0  0  0  0  0
    5.9274   -1.5502   -1.6572 C   0  0  0  0  0  0  0  0  0  0  0  0
    6.7609   -0.6118   -1.0470 C   0  0  0  0  0  0  0  0  0  0  0  0
    6.2074    0.5176   -0.4444 C   0  0  0  0  0  0  0  0  0  0  0  0
    4.8216    0.7140   -0.4652 C   0  0  0  0  0  0  0  0  0  0  0  0
    7.0558    1.4689    0.2058 C   0  0  0  0  0  0  0  0  0  0  0  0
    7.7665    2.2653    0.7537 C   0  0  0  0  0  0  0  0  0  0  0  0
   -3.8836   -5.3783    2.1521 H   0  0  0  0  0  0  0  0  0  0  0  0
   -5.0958   -4.1450    1.6670 H   0  0  0  0  0  0  0  0  0  0  0  0
   -4.4625   -4.1731    3.3262 H   0  0  0  0  0  0  0  0  0  0  0  0
   -2.3117   -4.6222    0.4572 H   0  0  0  0  0  0  0  0  0  0  0  0
   -3.6210   -3.5334   -0.0992 H   0  0  0  0  0  0  0  0  0  0  0  0
   -1.2346   -2.8317   -0.7470 H   0  0  0  0  0  0  0  0  0  0  0  0
   -0.9671   -2.4861    1.0055 H   0  0  0  0  0  0  0  0  0  0  0  0
    0.2871   -1.1055   -0.4111 H   0  0  0  0  0  0  0  0  0  0  0  0
   -2.2063    3.1519   -0.5392 H   0  0  0  0  0  0  0  0  0  0  0  0
   -4.2266   -0.4600    1.1804 H   0  0  0  0  0  0  0  0  0  0  0  0
   -5.2333    0.9516    1.2817 H   0  0  0  0  0  0  0  0  0  0  0  0
   -3.9392    0.6462    3.3906 H   0  0  0  0  0  0  0  0  0  0  0  0
   -2.4303    0.7525    2.4979 H   0  0  0  0  0  0  0  0  0  0  0  0
   -5.3944    2.9914    2.1929 H   0  0  0  0  0  0  0  0  0  0  0  0
   -5.0721    2.6282    3.9194 H   0  0  0  0  0  0  0  0  0  0  0  0
   -4.5202    4.1536    3.2016 H   0  0  0  0  0  0  0  0  0  0  0  0
    2.0855    4.3319   -1.4927 H   0  0  0  0  0  0  0  0  0  0  0  0
    2.1281   -0.7090   -1.7529 H   0  0  0  0  0  0  0  0  0  0  0  0
    3.9148   -2.1051   -2.1430 H   0  0  0  0  0  0  0  0  0  0  0  0
    6.3537   -2.4392   -2.1157 H   0  0  0  0  0  0  0  0  0  0  0  0
    7.8362   -0.7721   -1.0349 H   0  0  0  0  0  0  0  0  0  0  0  0
    4.4063    1.5874    0.0313 H   0  0  0  0  0  0  0  0  0  0  0  0
    8.3926    2.9729    1.2411 H   0  0  0  0  0  0  0  0  0  0  0  0
  1  2  1  0
  2  3  1  0
  3  4  1  0
  4  5  1  0
  5  6  1  0
  6  7  2  0
  7  8  1  0
  8  9  2  0
  9 10  1  0
 10 11  2  0
 11 12  1  0
 12 13  1  0
 13 14  1  0
 14 15  1  0
 15 16  1  0
  9 17  1  0
 17 18  2  0
 18 19  1  0
 19 20  2  0
 20 21  1  0
 21 22  1  0
 22 23  2  0
 23 24  1  0
 24 25  2  0
 25 26  1  0
 26 27  2  0
 26 28  1  0
 28 29  3  0
 11  6  1  0
 20  8  1  0
 27 22  1  0
  1 30  1  0
  1 31  1  0
  1 32  1  0
  3 33  1  0
  3 34  1  0
  4 35  1  0
  4 36  1  0
  7 37  1  0
 10 38  1  0
 13 39  1  0
 13 40  1  0
 14 41  1  0
 14 42  1  0
 16 43  1  0
 16 44  1  0
 16 45  1  0
 18 46  1  0
 21 47  1  0
 23 48  1  0
 24 49  1  0
 25 50  1  0
 27 51  1  0
 29 52  1  0
M  END
>  <energy_abs>  (135) 
62.27495737721492

>  <SMILES>  (135) 
COCCOc1cc2c(cc1OCCOC)ncnc2Nc3cccc(c3)C#C

>  <cluster_no>  (135) 
135

>  <fda_drugs_id>  (135) 
AAKJLRGGTJKAMG-UHFFFAOYSA-N

>  <initial_conformation_id>  (135) 
165

>  <minimize_method>  (135) 
MMFF

$$$$

     RDKit          3D

 52 54  0  0  0  0  0  0  0  0999 V2000
   -4.2436   -3.9536    1.2149 C   0  0  0  0  0  0  0  0  0  0  0  0
   -2.9483   -4.1630    1.7610 O   0  0  0  0  0  0  0  0  0  0  0  0
   -2.3775   -2.9777    2.3149 C   0  0  0  0  0  0  0  0  0  0  0  0
   -1.7583   -2.0764    1.2487 C   0  0  0  0  0  0  0  0  0  0  0  0
   -1.1538   -0.9526    1.9020 O   0  0  0  0  0  0  0  0  0  0  0  0
   -0.8998    0.0493    1.0020 C   0  0  0  0  0  0  0  0  0  0  0  0
    0.4049    0.1848    0.5367 C   0  0  0  0  0  0  0  0  0  0  0  0
    0.7392    1.2259   -0.3607 C   0  0  0  0  0  0  0  0  0  0  0  0
   -0.2611    2.1168   -0.7764 C   0  0  0  0  0  0  0  0  0  0  0  0
   -1.5533    1.9712   -0.2779 C   0  0  0  0  0  0  0  0  0  0  0  0
   -1.8918    0.9555    0.6197 C   0  0  0  0  0  0  0  0  0  0  0  0
   -3.1330    0.7589    1.1631 O   0  0  0  0  0  0  0  0  0  0  0  0
   -4.1485    1.7112    0.8503 C   0  0  0  0  0  0  0  0  0  0  0  0
   -5.4147    1.3308    1.6106 C   0  0  0  0  0  0  0  0  0  0  0  0
   -6.4535    2.2558    1.2943 O   0  0  0  0  0  0  0  0  0  0  0  0
   -7.6506    1.9587    2.0020 C   0  0  0  0  0  0  0  0  0  0  0  0
   -0.0256    3.1109   -1.6354 N   0  0  0  0  0  0  0  0  0  0  0  0
    1.2240    3.2244   -2.0972 C   0  0  0  0  0  0  0  0  0  0  0  0
    2.2584    2.4449   -1.7742 N   0  0  0  0  0  0  0  0  0  0  0  0
    2.0232    1.4518   -0.8987 C   0  0  0  0  0  0  0  0  0  0  0  0
    3.0930    0.6084   -0.4916 N   0  0  0  0  0  0  0  0  0  0  0  0
    4.3808    0.4750   -1.0598 C   0  0  0  0  0  0  0  0  0  0  0  0
    4.6392    0.6999   -2.4171 C   0  0  0  0  0  0  0  0  0  0  0  0
    5.9129    0.4913   -2.9554 C   0  0  0  0  0  0  0  0  0  0  0  0
    6.9459    0.0261   -2.1452 C   0  0  0  0  0  0  0  0  0  0  0  0
    6.7006   -0.2419   -0.7998 C   0  0  0  0  0  0  0  0  0  0  0  0
    5.4241   -0.0301   -0.2662 C   0  0  0  0  0  0  0  0  0  0  0  0
    7.7513   -0.7407    0.0341 C   0  0  0  0  0  0  0  0  0  0  0  0
    8.6346   -1.1611    0.7305 C   0  0  0  0  0  0  0  0  0  0  0  0
   -4.2054   -3.2664    0.3660 H   0  0  0  0  0  0  0  0  0  0  0  0
   -4.9271   -3.5722    1.9795 H   0  0  0  0  0  0  0  0  0  0  0  0
   -4.6245   -4.9154    0.8604 H   0  0  0  0  0  0  0  0  0  0  0  0
   -1.5928   -3.2912    3.0128 H   0  0  0  0  0  0  0  0  0  0  0  0
   -3.1154   -2.4320    2.9153 H   0  0  0  0  0  0  0  0  0  0  0  0
   -0.9924   -2.6331    0.6947 H   0  0  0  0  0  0  0  0  0  0  0  0
   -2.5254   -1.7678    0.5288 H   0  0  0  0  0  0  0  0  0  0  0  0
    1.1524   -0.5326    0.8645 H   0  0  0  0  0  0  0  0  0  0  0  0
   -2.2936    2.6889   -0.6193 H   0  0  0  0  0  0  0  0  0  0  0  0
   -4.3607    1.7087   -0.2259 H   0  0  0  0  0  0  0  0  0  0  0  0
   -3.8417    2.7213    1.1485 H   0  0  0  0  0  0  0  0  0  0  0  0
   -5.2167    1.3392    2.6892 H   0  0  0  0  0  0  0  0  0  0  0  0
   -5.7222    0.3146    1.3362 H   0  0  0  0  0  0  0  0  0  0  0  0
   -8.0109    0.9591    1.7419 H   0  0  0  0  0  0  0  0  0  0  0  0
   -8.4109    2.6896    1.7153 H   0  0  0  0  0  0  0  0  0  0  0  0
   -7.4852    2.0313    3.0814 H   0  0  0  0  0  0  0  0  0  0  0  0
    1.4167    4.0281   -2.7995 H   0  0  0  0  0  0  0  0  0  0  0  0
    3.1350    0.6003    0.5225 H   0  0  0  0  0  0  0  0  0  0  0  0
    3.8472    1.0376   -3.0798 H   0  0  0  0  0  0  0  0  0  0  0  0
    6.0918    0.6867   -4.0092 H   0  0  0  0  0  0  0  0  0  0  0  0
    7.9334   -0.1357   -2.5703 H   0  0  0  0  0  0  0  0  0  0  0  0
    5.2477   -0.2594    0.7819 H   0  0  0  0  0  0  0  0  0  0  0  0
    9.4198   -1.5342    1.3456 H   0  0  0  0  0  0  0  0  0  0  0  0
  1  2  1  0
  2  3  1  0
  3  4  1  0
  4  5  1  0
  5  6  1  0
  6  7  2  0
  7  8  1  0
  8  9  2  0
  9 10  1  0
 10 11  2  0
 11 12  1  0
 12 13  1  0
 13 14  1  0
 14 15  1  0
 15 16  1  0
  9 17  1  0
 17 18  2  0
 18 19  1  0
 19 20  2  0
 20 21  1  0
 21 22  1  0
 22 23  2  0
 23 24  1  0
 24 25  2  0
 25 26  1  0
 26 27  2  0
 26 28  1  0
 28 29  3  0
 11  6  1  0
 20  8  1  0
 27 22  1  0
  1 30  1  0
  1 31  1  0
  1 32  1  0
  3 33  1  0
  3 34  1  0
  4 35  1  0
  4 36  1  0
  7 37  1  0
 10 38  1  0
 13 39  1  0
 13 40  1  0
 14 41  1  0
 14 42  1  0
 16 43  1  0
 16 44  1  0
 16 45  1  0
 18 46  1  0
 21 47  1  0
 23 48  1  0
 24 49  1  0
 25 50  1  0
 27 51  1  0
 29 52  1  0
M  END
>  <energy_abs>  (136) 
56.17089078627143

>  <SMILES>  (136) 
COCCOc1cc2c(cc1OCCOC)ncnc2Nc3cccc(c3)C#C

>  <cluster_no>  (136) 
136

>  <fda_drugs_id>  (136) 
AAKJLRGGTJKAMG-UHFFFAOYSA-N

>  <initial_conformation_id>  (136) 
164

>  <minimize_method>  (136) 
MMFF

$$$$

     RDKit          3D

 52 54  0  0  0  0  0  0  0  0999 V2000
   -0.8061   -5.2599    2.4196 C   0  0  0  0  0  0  0  0  0  0  0  0
   -1.2589   -4.4641    1.3313 O   0  0  0  0  0  0  0  0  0  0  0  0
   -1.5714   -3.1391    1.7500 C   0  0  0  0  0  0  0  0  0  0  0  0
   -2.0633   -2.3234    0.5567 C   0  0  0  0  0  0  0  0  0  0  0  0
   -2.3995   -1.0009    0.9989 O   0  0  0  0  0  0  0  0  0  0  0  0
   -1.7280   -0.0013    0.3506 C   0  0  0  0  0  0  0  0  0  0  0  0
   -0.3334    0.0327    0.3120 C   0  0  0  0  0  0  0  0  0  0  0  0
    0.3546    1.0978   -0.3288 C   0  0  0  0  0  0  0  0  0  0  0  0
   -0.3805    2.1171   -0.9479 C   0  0  0  0  0  0  0  0  0  0  0  0
   -1.7661    2.0757   -0.8820 C   0  0  0  0  0  0  0  0  0  0  0  0
   -2.4445    1.0532   -0.2123 C   0  0  0  0  0  0  0  0  0  0  0  0
   -3.8105    1.1488   -0.2290 O   0  0  0  0  0  0  0  0  0  0  0  0
   -4.4176    1.0180    1.0636 C   0  0  0  0  0  0  0  0  0  0  0  0
   -5.6137    1.9701    1.1421 C   0  0  0  0  0  0  0  0  0  0  0  0
   -5.2377    3.3519    1.0738 O   0  0  0  0  0  0  0  0  0  0  0  0
   -4.6839    3.8515    2.2830 C   0  0  0  0  0  0  0  0  0  0  0  0
    0.1982    3.1361   -1.5855 N   0  0  0  0  0  0  0  0  0  0  0  0
    1.5342    3.1500   -1.6118 C   0  0  0  0  0  0  0  0  0  0  0  0
    2.3422    2.2529   -1.0452 N   0  0  0  0  0  0  0  0  0  0  0  0
    1.7568    1.2288   -0.4027 C   0  0  0  0  0  0  0  0  0  0  0  0
    2.5700    0.2650    0.2573 N   0  0  0  0  0  0  0  0  0  0  0  0
    3.9597    0.0467    0.1135 C   0  0  0  0  0  0  0  0  0  0  0  0
    4.6577   -0.5826    1.1578 C   0  0  0  0  0  0  0  0  0  0  0  0
    6.0177   -0.8819    1.0416 C   0  0  0  0  0  0  0  0  0  0  0  0
    6.6966   -0.5775   -0.1381 C   0  0  0  0  0  0  0  0  0  0  0  0
    6.0124    0.0103   -1.2010 C   0  0  0  0  0  0  0  0  0  0  0  0
    4.6503    0.3051   -1.0779 C   0  0  0  0  0  0  0  0  0  0  0  0
    6.7032    0.3063   -2.4204 C   0  0  0  0  0  0  0  0  0  0  0  0
    7.2806    0.5672   -3.4397 C   0  0  0  0  0  0  0  0  0  0  0  0
   -0.6045   -6.2682    2.0470 H   0  0  0  0  0  0  0  0  0  0  0  0
    0.1191   -4.8486    2.8358 H   0  0  0  0  0  0  0  0  0  0  0  0
   -1.5732   -5.3210    3.1981 H   0  0  0  0  0  0  0  0  0  0  0  0
   -0.6828   -2.6681    2.1837 H   0  0  0  0  0  0  0  0  0  0  0  0
   -2.3440   -3.1641    2.5271 H   0  0  0  0  0  0  0  0  0  0  0  0
   -2.9769   -2.7824    0.1556 H   0  0  0  0  0  0  0  0  0  0  0  0
   -1.3333   -2.3482   -0.2629 H   0  0  0  0  0  0  0  0  0  0  0  0
    0.2317   -0.7691    0.7760 H   0  0  0  0  0  0  0  0  0  0  0  0
   -2.3422    2.8782   -1.3446 H   0  0  0  0  0  0  0  0  0  0  0  0
   -4.7805   -0.0097    1.1749 H   0  0  0  0  0  0  0  0  0  0  0  0
   -3.7096    1.2398    1.8691 H   0  0  0  0  0  0  0  0  0  0  0  0
   -6.2727    1.7928    0.2853 H   0  0  0  0  0  0  0  0  0  0  0  0
   -6.1958    1.7917    2.0521 H   0  0  0  0  0  0  0  0  0  0  0  0
   -4.4691    4.9141    2.1420 H   0  0  0  0  0  0  0  0  0  0  0  0
   -3.7456    3.3461    2.5271 H   0  0  0  0  0  0  0  0  0  0  0  0
   -5.3990    3.7484    3.1028 H   0  0  0  0  0  0  0  0  0  0  0  0
    2.0072    3.9725   -2.1353 H   0  0  0  0  0  0  0  0  0  0  0  0
    2.2912    0.2225    1.2313 H   0  0  0  0  0  0  0  0  0  0  0  0
    4.1474   -0.8460    2.0797 H   0  0  0  0  0  0  0  0  0  0  0  0
    6.5436   -1.3605    1.8622 H   0  0  0  0  0  0  0  0  0  0  0  0
    7.7539   -0.8124   -0.2270 H   0  0  0  0  0  0  0  0  0  0  0  0
    4.1294    0.7369   -1.9275 H   0  0  0  0  0  0  0  0  0  0  0  0
    7.7896    0.8029   -4.3456 H   0  0  0  0  0  0  0  0  0  0  0  0
  1  2  1  0
  2  3  1  0
  3  4  1  0
  4  5  1  0
  5  6  1  0
  6  7  2  0
  7  8  1  0
  8  9  2  0
  9 10  1  0
 10 11  2  0
 11 12  1  0
 12 13  1  0
 13 14  1  0
 14 15  1  0
 15 16  1  0
  9 17  1  0
 17 18  2  0
 18 19  1  0
 19 20  2  0
 20 21  1  0
 21 22  1  0
 22 23  2  0
 23 24  1  0
 24 25  2  0
 25 26  1  0
 26 27  2  0
 26 28  1  0
 28 29  3  0
 11  6  1  0
 20  8  1  0
 27 22  1  0
  1 30  1  0
  1 31  1  0
  1 32  1  0
  3 33  1  0
  3 34  1  0
  4 35  1  0
  4 36  1  0
  7 37  1  0
 10 38  1  0
 13 39  1  0
 13 40  1  0
 14 41  1  0
 14 42  1  0
 16 43  1  0
 16 44  1  0
 16 45  1  0
 18 46  1  0
 21 47  1  0
 23 48  1  0
 24 49  1  0
 25 50  1  0
 27 51  1  0
 29 52  1  0
M  END
>  <energy_abs>  (137) 
60.861406416201795

>  <SMILES>  (137) 
COCCOc1cc2c(cc1OCCOC)ncnc2Nc3cccc(c3)C#C

>  <cluster_no>  (137) 
137

>  <fda_drugs_id>  (137) 
AAKJLRGGTJKAMG-UHFFFAOYSA-N

>  <initial_conformation_id>  (137) 
163

>  <minimize_method>  (137) 
MMFF

$$$$

     RDKit          3D

 52 54  0  0  0  0  0  0  0  0999 V2000
   -1.8511   -4.8184    3.1279 C   0  0  0  0  0  0  0  0  0  0  0  0
   -2.7974   -4.0938    2.3565 O   0  0  0  0  0  0  0  0  0  0  0  0
   -2.4000   -3.9005    0.9953 C   0  0  0  0  0  0  0  0  0  0  0  0
   -1.3930   -2.7584    0.8217 C   0  0  0  0  0  0  0  0  0  0  0  0
   -2.0512   -1.5161    1.0822 O   0  0  0  0  0  0  0  0  0  0  0  0
   -1.3791   -0.3618    0.7737 C   0  0  0  0  0  0  0  0  0  0  0  0
   -0.0012   -0.2844    0.5666 C   0  0  0  0  0  0  0  0  0  0  0  0
    0.6231    0.9514    0.2580 C   0  0  0  0  0  0  0  0  0  0  0  0
   -0.1597    2.1058    0.1424 C   0  0  0  0  0  0  0  0  0  0  0  0
   -1.5279    2.0172    0.3671 C   0  0  0  0  0  0  0  0  0  0  0  0
   -2.1500    0.8079    0.6946 C   0  0  0  0  0  0  0  0  0  0  0  0
   -3.4952    0.6560    0.9125 O   0  0  0  0  0  0  0  0  0  0  0  0
   -4.3011    1.8151    1.1134 C   0  0  0  0  0  0  0  0  0  0  0  0
   -4.9416    2.2672   -0.1957 C   0  0  0  0  0  0  0  0  0  0  0  0
   -5.7138    3.4446    0.0381 O   0  0  0  0  0  0  0  0  0  0  0  0
   -6.3481    3.8974   -1.1509 C   0  0  0  0  0  0  0  0  0  0  0  0
    0.3540    3.2963   -0.1772 N   0  0  0  0  0  0  0  0  0  0  0  0
    1.6728    3.3464   -0.3897 C   0  0  0  0  0  0  0  0  0  0  0  0
    2.5240    2.3226   -0.2988 N   0  0  0  0  0  0  0  0  0  0  0  0
    2.0044    1.1283    0.0353 C   0  0  0  0  0  0  0  0  0  0  0  0
    2.8719    0.0123    0.1981 N   0  0  0  0  0  0  0  0  0  0  0  0
    4.2146   -0.1185   -0.2271 C   0  0  0  0  0  0  0  0  0  0  0  0
    5.0535   -1.0264    0.4391 C   0  0  0  0  0  0  0  0  0  0  0  0
    6.3678   -1.2409    0.0149 C   0  0  0  0  0  0  0  0  0  0  0  0
    6.8564   -0.5675   -1.1021 C   0  0  0  0  0  0  0  0  0  0  0  0
    6.0267    0.3098   -1.7999 C   0  0  0  0  0  0  0  0  0  0  0  0
    4.7116    0.5206   -1.3705 C   0  0  0  0  0  0  0  0  0  0  0  0
    6.5182    0.9867   -2.9612 C   0  0  0  0  0  0  0  0  0  0  0  0
    6.9301    1.5558   -3.9351 C   0  0  0  0  0  0  0  0  0  0  0  0
   -2.2658   -4.9626    4.1294 H   0  0  0  0  0  0  0  0  0  0  0  0
   -1.6659   -5.8021    2.6857 H   0  0  0  0  0  0  0  0  0  0  0  0
   -0.9133   -4.2651    3.2228 H   0  0  0  0  0  0  0  0  0  0  0  0
   -3.3131   -3.6625    0.4389 H   0  0  0  0  0  0  0  0  0  0  0  0
   -1.9969   -4.8367    0.5926 H   0  0  0  0  0  0  0  0  0  0  0  0
   -1.0287   -2.7733   -0.2125 H   0  0  0  0  0  0  0  0  0  0  0  0
   -0.5565   -2.8792    1.5166 H   0  0  0  0  0  0  0  0  0  0  0  0
    0.6136   -1.1755    0.6315 H   0  0  0  0  0  0  0  0  0  0  0  0
   -2.0995    2.9345    0.2643 H   0  0  0  0  0  0  0  0  0  0  0  0
   -5.1009    1.5298    1.8081 H   0  0  0  0  0  0  0  0  0  0  0  0
   -3.7693    2.6264    1.6249 H   0  0  0  0  0  0  0  0  0  0  0  0
   -5.5830    1.4681   -0.5870 H   0  0  0  0  0  0  0  0  0  0  0  0
   -4.1739    2.4725   -0.9501 H   0  0  0  0  0  0  0  0  0  0  0  0
   -7.0349    3.1358   -1.5324 H   0  0  0  0  0  0  0  0  0  0  0  0
   -6.9215    4.7975   -0.9138 H   0  0  0  0  0  0  0  0  0  0  0  0
   -5.6023    4.1481   -1.9113 H   0  0  0  0  0  0  0  0  0  0  0  0
    2.0916    4.3104   -0.6576 H   0  0  0  0  0  0  0  0  0  0  0  0
    2.7468   -0.3533    1.1367 H   0  0  0  0  0  0  0  0  0  0  0  0
    4.6929   -1.5754    1.3051 H   0  0  0  0  0  0  0  0  0  0  0  0
    7.0070   -1.9364    0.5524 H   0  0  0  0  0  0  0  0  0  0  0  0
    7.8789   -0.7371   -1.4302 H   0  0  0  0  0  0  0  0  0  0  0  0
    4.0720    1.1881   -1.9421 H   0  0  0  0  0  0  0  0  0  0  0  0
    7.2930    2.0625   -4.7987 H   0  0  0  0  0  0  0  0  0  0  0  0
  1  2  1  0
  2  3  1  0
  3  4  1  0
  4  5  1  0
  5  6  1  0
  6  7  2  0
  7  8  1  0
  8  9  2  0
  9 10  1  0
 10 11  2  0
 11 12  1  0
 12 13  1  0
 13 14  1  0
 14 15  1  0
 15 16  1  0
  9 17  1  0
 17 18  2  0
 18 19  1  0
 19 20  2  0
 20 21  1  0
 21 22  1  0
 22 23  2  0
 23 24  1  0
 24 25  2  0
 25 26  1  0
 26 27  2  0
 26 28  1  0
 28 29  3  0
 11  6  1  0
 20  8  1  0
 27 22  1  0
  1 30  1  0
  1 31  1  0
  1 32  1  0
  3 33  1  0
  3 34  1  0
  4 35  1  0
  4 36  1  0
  7 37  1  0
 10 38  1  0
 13 39  1  0
 13 40  1  0
 14 41  1  0
 14 42  1  0
 16 43  1  0
 16 44  1  0
 16 45  1  0
 18 46  1  0
 21 47  1  0
 23 48  1  0
 24 49  1  0
 25 50  1  0
 27 51  1  0
 29 52  1  0
M  END
>  <energy_abs>  (138) 
61.793862762414705

>  <SMILES>  (138) 
COCCOc1cc2c(cc1OCCOC)ncnc2Nc3cccc(c3)C#C

>  <cluster_no>  (138) 
138

>  <fda_drugs_id>  (138) 
AAKJLRGGTJKAMG-UHFFFAOYSA-N

>  <initial_conformation_id>  (138) 
162

>  <minimize_method>  (138) 
MMFF

$$$$

     RDKit          3D

 52 54  0  0  0  0  0  0  0  0999 V2000
   -3.3049   -4.3941    2.8530 C   0  0  0  0  0  0  0  0  0  0  0  0
   -2.3280   -4.2190    1.8409 O   0  0  0  0  0  0  0  0  0  0  0  0
   -1.2129   -3.4156    2.2488 C   0  0  0  0  0  0  0  0  0  0  0  0
   -1.5595   -1.9524    2.5437 C   0  0  0  0  0  0  0  0  0  0  0  0
   -2.0977   -1.3450    1.3537 O   0  0  0  0  0  0  0  0  0  0  0  0
   -1.4784   -0.1563    1.0766 C   0  0  0  0  0  0  0  0  0  0  0  0
   -0.2339   -0.1762    0.4519 C   0  0  0  0  0  0  0  0  0  0  0  0
    0.3927    1.0315    0.0666 C   0  0  0  0  0  0  0  0  0  0  0  0
   -0.2496    2.2519    0.3310 C   0  0  0  0  0  0  0  0  0  0  0  0
   -1.4963    2.2417    0.9515 C   0  0  0  0  0  0  0  0  0  0  0  0
   -2.1345    1.0511    1.3072 C   0  0  0  0  0  0  0  0  0  0  0  0
   -3.3518    0.9823    1.9261 O   0  0  0  0  0  0  0  0  0  0  0  0
   -4.3581    1.9228    1.5165 C   0  0  0  0  0  0  0  0  0  0  0  0
   -4.8590    1.6590    0.0937 C   0  0  0  0  0  0  0  0  0  0  0  0
   -4.0568    2.3816   -0.8422 O   0  0  0  0  0  0  0  0  0  0  0  0
   -4.3911    2.0619   -2.1832 C   0  0  0  0  0  0  0  0  0  0  0  0
    0.2905    3.4305    0.0074 N   0  0  0  0  0  0  0  0  0  0  0  0
    1.4856    3.4006   -0.5903 C   0  0  0  0  0  0  0  0  0  0  0  0
    2.1916    2.3072   -0.8953 N   0  0  0  0  0  0  0  0  0  0  0  0
    1.6442    1.1216   -0.5771 C   0  0  0  0  0  0  0  0  0  0  0  0
    2.3353   -0.0806   -0.9022 N   0  0  0  0  0  0  0  0  0  0  0  0
    3.6690   -0.2328   -1.3452 C   0  0  0  0  0  0  0  0  0  0  0  0
    4.0103   -1.3741   -2.0906 C   0  0  0  0  0  0  0  0  0  0  0  0
    5.3249   -1.5992   -2.5065 C   0  0  0  0  0  0  0  0  0  0  0  0
    6.3276   -0.6981   -2.1631 C   0  0  0  0  0  0  0  0  0  0  0  0
    6.0155    0.4239   -1.3921 C   0  0  0  0  0  0  0  0  0  0  0  0
    4.6970    0.6434   -0.9763 C   0  0  0  0  0  0  0  0  0  0  0  0
    7.0435    1.3485   -1.0293 C   0  0  0  0  0  0  0  0  0  0  0  0
    7.9038    2.1383   -0.7458 C   0  0  0  0  0  0  0  0  0  0  0  0
   -3.8579   -3.4667    3.0197 H   0  0  0  0  0  0  0  0  0  0  0  0
   -2.8516   -4.7351    3.7870 H   0  0  0  0  0  0  0  0  0  0  0  0
   -4.0171   -5.1531    2.5157 H   0  0  0  0  0  0  0  0  0  0  0  0
   -0.7246   -3.8801    3.1168 H   0  0  0  0  0  0  0  0  0  0  0  0
   -0.5064   -3.4475    1.4107 H   0  0  0  0  0  0  0  0  0  0  0  0
   -2.3236   -1.8755    3.3275 H   0  0  0  0  0  0  0  0  0  0  0  0
   -0.6553   -1.4463    2.9108 H   0  0  0  0  0  0  0  0  0  0  0  0
    0.2415   -1.1336    0.2649 H   0  0  0  0  0  0  0  0  0  0  0  0
   -1.9655    3.2031    1.1451 H   0  0  0  0  0  0  0  0  0  0  0  0
   -4.0279    2.9565    1.6688 H   0  0  0  0  0  0  0  0  0  0  0  0
   -5.1937    1.7553    2.2049 H   0  0  0  0  0  0  0  0  0  0  0  0
   -4.8195    0.5894   -0.1295 H   0  0  0  0  0  0  0  0  0  0  0  0
   -5.8885    2.0156   -0.0041 H   0  0  0  0  0  0  0  0  0  0  0  0
   -5.4363    2.3151   -2.3918 H   0  0  0  0  0  0  0  0  0  0  0  0
   -4.2148    0.9949   -2.3816 H   0  0  0  0  0  0  0  0  0  0  0  0
   -3.7496    2.6494   -2.8423 H   0  0  0  0  0  0  0  0  0  0  0  0
    1.9240    4.3557   -0.8562 H   0  0  0  0  0  0  0  0  0  0  0  0
    1.7059   -0.6837   -1.4247 H   0  0  0  0  0  0  0  0  0  0  0  0
    3.2508   -2.1059   -2.3529 H   0  0  0  0  0  0  0  0  0  0  0  0
    5.5665   -2.4837   -3.0902 H   0  0  0  0  0  0  0  0  0  0  0  0
    7.3508   -0.8766   -2.4863 H   0  0  0  0  0  0  0  0  0  0  0  0
    4.4816    1.5036   -0.3504 H   0  0  0  0  0  0  0  0  0  0  0  0
    8.6664    2.8451   -0.5034 H   0  0  0  0  0  0  0  0  0  0  0  0
  1  2  1  0
  2  3  1  0
  3  4  1  0
  4  5  1  0
  5  6  1  0
  6  7  2  0
  7  8  1  0
  8  9  2  0
  9 10  1  0
 10 11  2  0
 11 12  1  0
 12 13  1  0
 13 14  1  0
 14 15  1  0
 15 16  1  0
  9 17  1  0
 17 18  2  0
 18 19  1  0
 19 20  2  0
 20 21  1  0
 21 22  1  0
 22 23  2  0
 23 24  1  0
 24 25  2  0
 25 26  1  0
 26 27  2  0
 26 28  1  0
 28 29  3  0
 11  6  1  0
 20  8  1  0
 27 22  1  0
  1 30  1  0
  1 31  1  0
  1 32  1  0
  3 33  1  0
  3 34  1  0
  4 35  1  0
  4 36  1  0
  7 37  1  0
 10 38  1  0
 13 39  1  0
 13 40  1  0
 14 41  1  0
 14 42  1  0
 16 43  1  0
 16 44  1  0
 16 45  1  0
 18 46  1  0
 21 47  1  0
 23 48  1  0
 24 49  1  0
 25 50  1  0
 27 51  1  0
 29 52  1  0
M  END
>  <energy_abs>  (139) 
63.88387731150526

>  <SMILES>  (139) 
COCCOc1cc2c(cc1OCCOC)ncnc2Nc3cccc(c3)C#C

>  <cluster_no>  (139) 
139

>  <fda_drugs_id>  (139) 
AAKJLRGGTJKAMG-UHFFFAOYSA-N

>  <initial_conformation_id>  (139) 
161

>  <minimize_method>  (139) 
MMFF

$$$$

     RDKit          3D

 52 54  0  0  0  0  0  0  0  0999 V2000
   -3.0524   -4.1727   -0.0753 C   0  0  0  0  0  0  0  0  0  0  0  0
   -3.3201   -3.7119    1.2395 O   0  0  0  0  0  0  0  0  0  0  0  0
   -2.1578   -3.5828    2.0617 C   0  0  0  0  0  0  0  0  0  0  0  0
   -1.1978   -2.4687    1.6297 C   0  0  0  0  0  0  0  0  0  0  0  0
   -1.8484   -1.2044    1.7675 O   0  0  0  0  0  0  0  0  0  0  0  0
   -1.2153   -0.1042    1.2488 C   0  0  0  0  0  0  0  0  0  0  0  0
    0.1443   -0.0555    0.9357 C   0  0  0  0  0  0  0  0  0  0  0  0
    0.7326    1.1245    0.4131 C   0  0  0  0  0  0  0  0  0  0  0  0
   -0.0685    2.2504    0.1926 C   0  0  0  0  0  0  0  0  0  0  0  0
   -1.4163    2.1930    0.5232 C   0  0  0  0  0  0  0  0  0  0  0  0
   -2.0021    1.0423    1.0611 C   0  0  0  0  0  0  0  0  0  0  0  0
   -3.3270    0.9253    1.3928 O   0  0  0  0  0  0  0  0  0  0  0  0
   -4.1301    2.1043    1.5070 C   0  0  0  0  0  0  0  0  0  0  0  0
   -4.8384    2.4271    0.1897 C   0  0  0  0  0  0  0  0  0  0  0  0
   -5.9194    1.5116   -0.0121 O   0  0  0  0  0  0  0  0  0  0  0  0
   -6.5645    1.7240   -1.2595 C   0  0  0  0  0  0  0  0  0  0  0  0
    0.4081    3.3859   -0.3245 N   0  0  0  0  0  0  0  0  0  0  0  0
    1.7084    3.4064   -0.6350 C   0  0  0  0  0  0  0  0  0  0  0  0
    2.5749    2.4063   -0.4620 N   0  0  0  0  0  0  0  0  0  0  0  0
    2.0931    1.2698    0.0711 C   0  0  0  0  0  0  0  0  0  0  0  0
    2.9817    0.1883    0.3258 N   0  0  0  0  0  0  0  0  0  0  0  0
    4.2930    0.0003   -0.1696 C   0  0  0  0  0  0  0  0  0  0  0  0
    5.1847   -0.8064    0.5557 C   0  0  0  0  0  0  0  0  0  0  0  0
    6.4687   -1.0771    0.0749 C   0  0  0  0  0  0  0  0  0  0  0  0
    6.8727   -0.5645   -1.1555 C   0  0  0  0  0  0  0  0  0  0  0  0
    5.9884    0.2074   -1.9083 C   0  0  0  0  0  0  0  0  0  0  0  0
    4.7039    0.4753   -1.4219 C   0  0  0  0  0  0  0  0  0  0  0  0
    6.3919    0.7163   -3.1836 C   0  0  0  0  0  0  0  0  0  0  0  0
    6.7304    1.1443   -4.2533 C   0  0  0  0  0  0  0  0  0  0  0  0
   -4.0072   -4.3984   -0.5582 H   0  0  0  0  0  0  0  0  0  0  0  0
   -2.5519   -3.3993   -0.6634 H   0  0  0  0  0  0  0  0  0  0  0  0
   -2.4497   -5.0857   -0.0549 H   0  0  0  0  0  0  0  0  0  0  0  0
   -1.6346   -4.5452    2.0967 H   0  0  0  0  0  0  0  0  0  0  0  0
   -2.5224   -3.3674    3.0720 H   0  0  0  0  0  0  0  0  0  0  0  0
   -0.3230   -2.4975    2.2896 H   0  0  0  0  0  0  0  0  0  0  0  0
   -0.8812   -2.6204    0.5924 H   0  0  0  0  0  0  0  0  0  0  0  0
    0.7714   -0.9283    1.0817 H   0  0  0  0  0  0  0  0  0  0  0  0
   -2.0033    3.0849    0.3306 H   0  0  0  0  0  0  0  0  0  0  0  0
   -3.5459    2.9549    1.8750 H   0  0  0  0  0  0  0  0  0  0  0  0
   -4.8809    1.8869    2.2754 H   0  0  0  0  0  0  0  0  0  0  0  0
   -5.2499    3.4411    0.2389 H   0  0  0  0  0  0  0  0  0  0  0  0
   -4.1457    2.3544   -0.6551 H   0  0  0  0  0  0  0  0  0  0  0  0
   -5.8650    1.5623   -2.0852 H   0  0  0  0  0  0  0  0  0  0  0  0
   -6.9789    2.7354   -1.3092 H   0  0  0  0  0  0  0  0  0  0  0  0
   -7.3835    1.0056   -1.3510 H   0  0  0  0  0  0  0  0  0  0  0  0
    2.0974    4.3234   -1.0641 H   0  0  0  0  0  0  0  0  0  0  0  0
    2.9242   -0.0466    1.3116 H   0  0  0  0  0  0  0  0  0  0  0  0
    4.8900   -1.2303    1.5123 H   0  0  0  0  0  0  0  0  0  0  0  0
    7.1502   -1.6911    0.6577 H   0  0  0  0  0  0  0  0  0  0  0  0
    7.8717   -0.7778   -1.5272 H   0  0  0  0  0  0  0  0  0  0  0  0
    4.0196    1.0566   -2.0345 H   0  0  0  0  0  0  0  0  0  0  0  0
    7.0289    1.5260   -5.2016 H   0  0  0  0  0  0  0  0  0  0  0  0
  1  2  1  0
  2  3  1  0
  3  4  1  0
  4  5  1  0
  5  6  1  0
  6  7  2  0
  7  8  1  0
  8  9  2  0
  9 10  1  0
 10 11  2  0
 11 12  1  0
 12 13  1  0
 13 14  1  0
 14 15  1  0
 15 16  1  0
  9 17  1  0
 17 18  2  0
 18 19  1  0
 19 20  2  0
 20 21  1  0
 21 22  1  0
 22 23  2  0
 23 24  1  0
 24 25  2  0
 25 26  1  0
 26 27  2  0
 26 28  1  0
 28 29  3  0
 11  6  1  0
 20  8  1  0
 27 22  1  0
  1 30  1  0
  1 31  1  0
  1 32  1  0
  3 33  1  0
  3 34  1  0
  4 35  1  0
  4 36  1  0
  7 37  1  0
 10 38  1  0
 13 39  1  0
 13 40  1  0
 14 41  1  0
 14 42  1  0
 16 43  1  0
 16 44  1  0
 16 45  1  0
 18 46  1  0
 21 47  1  0
 23 48  1  0
 24 49  1  0
 25 50  1  0
 27 51  1  0
 29 52  1  0
M  END
>  <energy_abs>  (140) 
65.09524025352113

>  <SMILES>  (140) 
COCCOc1cc2c(cc1OCCOC)ncnc2Nc3cccc(c3)C#C

>  <cluster_no>  (140) 
140

>  <fda_drugs_id>  (140) 
AAKJLRGGTJKAMG-UHFFFAOYSA-N

>  <initial_conformation_id>  (140) 
160

>  <minimize_method>  (140) 
MMFF

$$$$

     RDKit          3D

 52 54  0  0  0  0  0  0  0  0999 V2000
   -2.1822   -2.4437    3.2526 C   0  0  0  0  0  0  0  0  0  0  0  0
   -1.5373   -2.3156    1.9930 O   0  0  0  0  0  0  0  0  0  0  0  0
   -2.3049   -2.9221    0.9456 C   0  0  0  0  0  0  0  0  0  0  0  0
   -1.6275   -2.6676   -0.4035 C   0  0  0  0  0  0  0  0  0  0  0  0
   -2.0153   -1.4086   -0.9782 O   0  0  0  0  0  0  0  0  0  0  0  0
   -1.4179   -0.3293   -0.3832 C   0  0  0  0  0  0  0  0  0  0  0  0
   -0.0474   -0.1159   -0.5147 C   0  0  0  0  0  0  0  0  0  0  0  0
    0.5622    1.0222    0.0670 C   0  0  0  0  0  0  0  0  0  0  0  0
   -0.2369    1.9616    0.7335 C   0  0  0  0  0  0  0  0  0  0  0  0
   -1.6059    1.7394    0.8305 C   0  0  0  0  0  0  0  0  0  0  0  0
   -2.2095    0.5987    0.2952 C   0  0  0  0  0  0  0  0  0  0  0  0
   -3.5548    0.3473    0.3501 O   0  0  0  0  0  0  0  0  0  0  0  0
   -4.2467    0.7727    1.5312 C   0  0  0  0  0  0  0  0  0  0  0  0
   -5.1160    1.9944    1.2332 C   0  0  0  0  0  0  0  0  0  0  0  0
   -6.2765    1.5883    0.5003 O   0  0  0  0  0  0  0  0  0  0  0  0
   -7.0809    2.7001    0.1321 C   0  0  0  0  0  0  0  0  0  0  0  0
    0.2609    3.0748    1.2781 N   0  0  0  0  0  0  0  0  0  0  0  0
    1.5791    3.2643    1.1569 C   0  0  0  0  0  0  0  0  0  0  0  0
    2.4435    2.4428    0.5571 N   0  0  0  0  0  0  0  0  0  0  0  0
    1.9404    1.3158    0.0219 C   0  0  0  0  0  0  0  0  0  0  0  0
    2.8189    0.3784   -0.5888 N   0  0  0  0  0  0  0  0  0  0  0  0
    4.1723    0.5515   -0.9587 C   0  0  0  0  0  0  0  0  0  0  0  0
    4.6984    1.7889   -1.3491 C   0  0  0  0  0  0  0  0  0  0  0  0
    6.0249    1.9092   -1.7739 C   0  0  0  0  0  0  0  0  0  0  0  0
    6.8425    0.7832   -1.8378 C   0  0  0  0  0  0  0  0  0  0  0  0
    6.3279   -0.4642   -1.4894 C   0  0  0  0  0  0  0  0  0  0  0  0
    4.9987   -0.5789   -1.0661 C   0  0  0  0  0  0  0  0  0  0  0  0
    7.1565   -1.6285   -1.5694 C   0  0  0  0  0  0  0  0  0  0  0  0
    7.8526   -2.6047   -1.6362 C   0  0  0  0  0  0  0  0  0  0  0  0
   -1.5501   -1.9755    4.0119 H   0  0  0  0  0  0  0  0  0  0  0  0
   -2.3154   -3.4988    3.5097 H   0  0  0  0  0  0  0  0  0  0  0  0
   -3.1497   -1.9327    3.2415 H   0  0  0  0  0  0  0  0  0  0  0  0
   -3.3232   -2.5173    0.9486 H   0  0  0  0  0  0  0  0  0  0  0  0
   -2.3394   -4.0007    1.1349 H   0  0  0  0  0  0  0  0  0  0  0  0
   -0.5374   -2.7615   -0.3359 H   0  0  0  0  0  0  0  0  0  0  0  0
   -1.9751   -3.4271   -1.1123 H   0  0  0  0  0  0  0  0  0  0  0  0
    0.5432   -0.8203   -1.0929 H   0  0  0  0  0  0  0  0  0  0  0  0
   -2.2000    2.5004    1.3264 H   0  0  0  0  0  0  0  0  0  0  0  0
   -4.8846   -0.0662    1.8322 H   0  0  0  0  0  0  0  0  0  0  0  0
   -3.5624    0.9651    2.3658 H   0  0  0  0  0  0  0  0  0  0  0  0
   -5.4432    2.4467    2.1757 H   0  0  0  0  0  0  0  0  0  0  0  0
   -4.5586    2.7318    0.6458 H   0  0  0  0  0  0  0  0  0  0  0  0
   -7.4315    3.2307    1.0226 H   0  0  0  0  0  0  0  0  0  0  0  0
   -7.9497    2.3295   -0.4187 H   0  0  0  0  0  0  0  0  0  0  0  0
   -6.5212    3.3809   -0.5165 H   0  0  0  0  0  0  0  0  0  0  0  0
    1.9862    4.1711    1.5905 H   0  0  0  0  0  0  0  0  0  0  0  0
    2.6642   -0.5308   -0.1647 H   0  0  0  0  0  0  0  0  0  0  0  0
    4.0762    2.6800   -1.3346 H   0  0  0  0  0  0  0  0  0  0  0  0
    6.4136    2.8827   -2.0605 H   0  0  0  0  0  0  0  0  0  0  0  0
    7.8729    0.8839   -2.1690 H   0  0  0  0  0  0  0  0  0  0  0  0
    4.6101   -1.5621   -0.8136 H   0  0  0  0  0  0  0  0  0  0  0  0
    8.4715   -3.4693   -1.6969 H   0  0  0  0  0  0  0  0  0  0  0  0
  1  2  1  0
  2  3  1  0
  3  4  1  0
  4  5  1  0
  5  6  1  0
  6  7  2  0
  7  8  1  0
  8  9  2  0
  9 10  1  0
 10 11  2  0
 11 12  1  0
 12 13  1  0
 13 14  1  0
 14 15  1  0
 15 16  1  0
  9 17  1  0
 17 18  2  0
 18 19  1  0
 19 20  2  0
 20 21  1  0
 21 22  1  0
 22 23  2  0
 23 24  1  0
 24 25  2  0
 25 26  1  0
 26 27  2  0
 26 28  1  0
 28 29  3  0
 11  6  1  0
 20  8  1  0
 27 22  1  0
  1 30  1  0
  1 31  1  0
  1 32  1  0
  3 33  1  0
  3 34  1  0
  4 35  1  0
  4 36  1  0
  7 37  1  0
 10 38  1  0
 13 39  1  0
 13 40  1  0
 14 41  1  0
 14 42  1  0
 16 43  1  0
 16 44  1  0
 16 45  1  0
 18 46  1  0
 21 47  1  0
 23 48  1  0
 24 49  1  0
 25 50  1  0
 27 51  1  0
 29 52  1  0
M  END
>  <energy_abs>  (141) 
62.21910188963824

>  <SMILES>  (141) 
COCCOc1cc2c(cc1OCCOC)ncnc2Nc3cccc(c3)C#C

>  <cluster_no>  (141) 
141

>  <fda_drugs_id>  (141) 
AAKJLRGGTJKAMG-UHFFFAOYSA-N

>  <initial_conformation_id>  (141) 
159

>  <minimize_method>  (141) 
MMFF

$$$$

     RDKit          3D

 52 54  0  0  0  0  0  0  0  0999 V2000
   -0.2667   -3.3614    0.8852 C   0  0  0  0  0  0  0  0  0  0  0  0
   -0.6820   -2.4411   -0.1158 O   0  0  0  0  0  0  0  0  0  0  0  0
   -2.1084   -2.4196   -0.2484 C   0  0  0  0  0  0  0  0  0  0  0  0
   -2.5225   -1.4046   -1.3184 C   0  0  0  0  0  0  0  0  0  0  0  0
   -2.8288   -0.1240   -0.7555 O   0  0  0  0  0  0  0  0  0  0  0  0
   -1.8221    0.7327   -0.4159 C   0  0  0  0  0  0  0  0  0  0  0  0
   -0.4732    0.5551   -0.7019 C   0  0  0  0  0  0  0  0  0  0  0  0
    0.5072    1.4900   -0.2680 C   0  0  0  0  0  0  0  0  0  0  0  0
    0.1006    2.6551    0.3972 C   0  0  0  0  0  0  0  0  0  0  0  0
   -1.2490    2.8402    0.6529 C   0  0  0  0  0  0  0  0  0  0  0  0
   -2.1946    1.8852    0.2800 C   0  0  0  0  0  0  0  0  0  0  0  0
   -3.5091    2.1501    0.5685 O   0  0  0  0  0  0  0  0  0  0  0  0
   -3.9464    1.4056    1.7117 C   0  0  0  0  0  0  0  0  0  0  0  0
   -5.3251    0.8161    1.4276 C   0  0  0  0  0  0  0  0  0  0  0  0
   -5.7985    0.1326    2.5889 O   0  0  0  0  0  0  0  0  0  0  0  0
   -7.1036   -0.3937    2.3887 C   0  0  0  0  0  0  0  0  0  0  0  0
    0.9570    3.5974    0.7979 N   0  0  0  0  0  0  0  0  0  0  0  0
    2.2484    3.3845    0.5289 C   0  0  0  0  0  0  0  0  0  0  0  0
    2.7624    2.3100   -0.0720 N   0  0  0  0  0  0  0  0  0  0  0  0
    1.9002    1.3483   -0.4465 C   0  0  0  0  0  0  0  0  0  0  0  0
    2.3950    0.1850   -1.1088 N   0  0  0  0  0  0  0  0  0  0  0  0
    3.7512   -0.2011   -1.2584 C   0  0  0  0  0  0  0  0  0  0  0  0
    4.0900   -0.9846   -2.3700 C   0  0  0  0  0  0  0  0  0  0  0  0
    5.3842   -1.4824   -2.5316 C   0  0  0  0  0  0  0  0  0  0  0  0
    6.3530   -1.2259   -1.5621 C   0  0  0  0  0  0  0  0  0  0  0  0
    6.0236   -0.4740   -0.4341 C   0  0  0  0  0  0  0  0  0  0  0  0
    4.7255    0.0240   -0.2790 C   0  0  0  0  0  0  0  0  0  0  0  0
    7.0114   -0.2243    0.5711 C   0  0  0  0  0  0  0  0  0  0  0  0
    7.8393   -0.0207    1.4175 C   0  0  0  0  0  0  0  0  0  0  0  0
   -0.5819   -4.3759    0.6255 H   0  0  0  0  0  0  0  0  0  0  0  0
   -0.6720   -3.0769    1.8597 H   0  0  0  0  0  0  0  0  0  0  0  0
    0.8247   -3.3385    0.9389 H   0  0  0  0  0  0  0  0  0  0  0  0
   -2.5608   -2.1718    0.7169 H   0  0  0  0  0  0  0  0  0  0  0  0
   -2.4315   -3.4194   -0.5587 H   0  0  0  0  0  0  0  0  0  0  0  0
   -1.8074   -1.3268   -2.1430 H   0  0  0  0  0  0  0  0  0  0  0  0
   -3.4656   -1.7492   -1.7562 H   0  0  0  0  0  0  0  0  0  0  0  0
   -0.1467   -0.3075   -1.2708 H   0  0  0  0  0  0  0  0  0  0  0  0
   -1.5733    3.7428    1.1635 H   0  0  0  0  0  0  0  0  0  0  0  0
   -3.2539    0.6052    2.0087 H   0  0  0  0  0  0  0  0  0  0  0  0
   -4.0092    2.0947    2.5613 H   0  0  0  0  0  0  0  0  0  0  0  0
   -5.2632    0.1128    0.5870 H   0  0  0  0  0  0  0  0  0  0  0  0
   -6.0227    1.6161    1.1479 H   0  0  0  0  0  0  0  0  0  0  0  0
   -7.0981   -1.1291    1.5774 H   0  0  0  0  0  0  0  0  0  0  0  0
   -7.8121    0.4086    2.1634 H   0  0  0  0  0  0  0  0  0  0  0  0
   -7.4203   -0.8905    3.3096 H   0  0  0  0  0  0  0  0  0  0  0  0
    2.9458    4.1560    0.8329 H   0  0  0  0  0  0  0  0  0  0  0  0
    1.8989   -0.6225   -0.7312 H   0  0  0  0  0  0  0  0  0  0  0  0
    3.3386   -1.2019   -3.1265 H   0  0  0  0  0  0  0  0  0  0  0  0
    5.6331   -2.0772   -3.4047 H   0  0  0  0  0  0  0  0  0  0  0  0
    7.3593   -1.6171   -1.6887 H   0  0  0  0  0  0  0  0  0  0  0  0
    4.4783    0.5853    0.6188 H   0  0  0  0  0  0  0  0  0  0  0  0
    8.5732    0.1690    2.1661 H   0  0  0  0  0  0  0  0  0  0  0  0
  1  2  1  0
  2  3  1  0
  3  4  1  0
  4  5  1  0
  5  6  1  0
  6  7  2  0
  7  8  1  0
  8  9  2  0
  9 10  1  0
 10 11  2  0
 11 12  1  0
 12 13  1  0
 13 14  1  0
 14 15  1  0
 15 16  1  0
  9 17  1  0
 17 18  2  0
 18 19  1  0
 19 20  2  0
 20 21  1  0
 21 22  1  0
 22 23  2  0
 23 24  1  0
 24 25  2  0
 25 26  1  0
 26 27  2  0
 26 28  1  0
 28 29  3  0
 11  6  1  0
 20  8  1  0
 27 22  1  0
  1 30  1  0
  1 31  1  0
  1 32  1  0
  3 33  1  0
  3 34  1  0
  4 35  1  0
  4 36  1  0
  7 37  1  0
 10 38  1  0
 13 39  1  0
 13 40  1  0
 14 41  1  0
 14 42  1  0
 16 43  1  0
 16 44  1  0
 16 45  1  0
 18 46  1  0
 21 47  1  0
 23 48  1  0
 24 49  1  0
 25 50  1  0
 27 51  1  0
 29 52  1  0
M  END
>  <energy_abs>  (142) 
60.55678064316435

>  <SMILES>  (142) 
COCCOc1cc2c(cc1OCCOC)ncnc2Nc3cccc(c3)C#C

>  <cluster_no>  (142) 
142

>  <fda_drugs_id>  (142) 
AAKJLRGGTJKAMG-UHFFFAOYSA-N

>  <initial_conformation_id>  (142) 
158

>  <minimize_method>  (142) 
MMFF

$$$$

     RDKit          3D

 52 54  0  0  0  0  0  0  0  0999 V2000
   -2.2478   -4.7914   -3.1012 C   0  0  0  0  0  0  0  0  0  0  0  0
   -2.2674   -4.8059   -1.6799 O   0  0  0  0  0  0  0  0  0  0  0  0
   -2.8330   -3.6197   -1.1212 C   0  0  0  0  0  0  0  0  0  0  0  0
   -1.7903   -2.5128   -0.9695 C   0  0  0  0  0  0  0  0  0  0  0  0
   -2.4273   -1.3670   -0.4100 O   0  0  0  0  0  0  0  0  0  0  0  0
   -1.6636   -0.2563   -0.1612 C   0  0  0  0  0  0  0  0  0  0  0  0
   -0.2948   -0.1587   -0.4169 C   0  0  0  0  0  0  0  0  0  0  0  0
    0.4210    1.0313   -0.1250 C   0  0  0  0  0  0  0  0  0  0  0  0
   -0.2553    2.1149    0.4467 C   0  0  0  0  0  0  0  0  0  0  0  0
   -1.6180    2.0059    0.6922 C   0  0  0  0  0  0  0  0  0  0  0  0
   -2.3362    0.8435    0.3947 C   0  0  0  0  0  0  0  0  0  0  0  0
   -3.6794    0.6730    0.6146 O   0  0  0  0  0  0  0  0  0  0  0  0
   -4.4477    1.7499    1.1479 C   0  0  0  0  0  0  0  0  0  0  0  0
   -4.4000    1.7653    2.6763 C   0  0  0  0  0  0  0  0  0  0  0  0
   -5.1750    2.8339    3.2209 O   0  0  0  0  0  0  0  0  0  0  0  0
   -4.4641    4.0642    3.2686 C   0  0  0  0  0  0  0  0  0  0  0  0
    0.3534    3.2579    0.7718 N   0  0  0  0  0  0  0  0  0  0  0  0
    1.6667    3.3287    0.5319 C   0  0  0  0  0  0  0  0  0  0  0  0
    2.4194    2.3715   -0.0137 N   0  0  0  0  0  0  0  0  0  0  0  0
    1.7996    1.2269   -0.3510 C   0  0  0  0  0  0  0  0  0  0  0  0
    2.5453    0.1894   -0.9754 N   0  0  0  0  0  0  0  0  0  0  0  0
    3.9501    0.0446   -1.0522 C   0  0  0  0  0  0  0  0  0  0  0  0
    4.4979   -0.7240   -2.0921 C   0  0  0  0  0  0  0  0  0  0  0  0
    5.8743   -0.9523   -2.1746 C   0  0  0  0  0  0  0  0  0  0  0  0
    6.7244   -0.4349   -1.2002 C   0  0  0  0  0  0  0  0  0  0  0  0
    6.1957    0.2987   -0.1387 C   0  0  0  0  0  0  0  0  0  0  0  0
    4.8166    0.5240   -0.0612 C   0  0  0  0  0  0  0  0  0  0  0  0
    7.0634    0.8117    0.8773 C   0  0  0  0  0  0  0  0  0  0  0  0
    7.7908    1.2423    1.7303 C   0  0  0  0  0  0  0  0  0  0  0  0
   -1.8108   -5.7322   -3.4467 H   0  0  0  0  0  0  0  0  0  0  0  0
   -1.6351   -3.9674   -3.4766 H   0  0  0  0  0  0  0  0  0  0  0  0
   -3.2651   -4.7160   -3.4971 H   0  0  0  0  0  0  0  0  0  0  0  0
   -3.6968   -3.2788   -1.7054 H   0  0  0  0  0  0  0  0  0  0  0  0
   -3.2213   -3.8780   -0.1292 H   0  0  0  0  0  0  0  0  0  0  0  0
   -0.9866   -2.8712   -0.3146 H   0  0  0  0  0  0  0  0  0  0  0  0
   -1.3642   -2.2670   -1.9487 H   0  0  0  0  0  0  0  0  0  0  0  0
    0.2500   -1.0032   -0.8256 H   0  0  0  0  0  0  0  0  0  0  0  0
   -2.1003    2.8704    1.1359 H   0  0  0  0  0  0  0  0  0  0  0  0
   -5.4872    1.5784    0.8421 H   0  0  0  0  0  0  0  0  0  0  0  0
   -4.1878    2.7117    0.6928 H   0  0  0  0  0  0  0  0  0  0  0  0
   -4.8287    0.8278    3.0490 H   0  0  0  0  0  0  0  0  0  0  0  0
   -3.3734    1.7965    3.0591 H   0  0  0  0  0  0  0  0  0  0  0  0
   -4.1821    4.3936    2.2651 H   0  0  0  0  0  0  0  0  0  0  0  0
   -3.5738    3.9677    3.8974 H   0  0  0  0  0  0  0  0  0  0  0  0
   -5.1191    4.8207    3.7093 H   0  0  0  0  0  0  0  0  0  0  0  0
    2.1677    4.2517    0.8028 H   0  0  0  0  0  0  0  0  0  0  0  0
    2.1031   -0.0403   -1.8592 H   0  0  0  0  0  0  0  0  0  0  0  0
    3.8555   -1.1528   -2.8569 H   0  0  0  0  0  0  0  0  0  0  0  0
    6.2810   -1.5382   -2.9946 H   0  0  0  0  0  0  0  0  0  0  0  0
    7.7944   -0.6158   -1.2662 H   0  0  0  0  0  0  0  0  0  0  0  0
    4.4210    1.0748    0.7881 H   0  0  0  0  0  0  0  0  0  0  0  0
    8.4338    1.6251    2.4880 H   0  0  0  0  0  0  0  0  0  0  0  0
  1  2  1  0
  2  3  1  0
  3  4  1  0
  4  5  1  0
  5  6  1  0
  6  7  2  0
  7  8  1  0
  8  9  2  0
  9 10  1  0
 10 11  2  0
 11 12  1  0
 12 13  1  0
 13 14  1  0
 14 15  1  0
 15 16  1  0
  9 17  1  0
 17 18  2  0
 18 19  1  0
 19 20  2  0
 20 21  1  0
 21 22  1  0
 22 23  2  0
 23 24  1  0
 24 25  2  0
 25 26  1  0
 26 27  2  0
 26 28  1  0
 28 29  3  0
 11  6  1  0
 20  8  1  0
 27 22  1  0
  1 30  1  0
  1 31  1  0
  1 32  1  0
  3 33  1  0
  3 34  1  0
  4 35  1  0
  4 36  1  0
  7 37  1  0
 10 38  1  0
 13 39  1  0
 13 40  1  0
 14 41  1  0
 14 42  1  0
 16 43  1  0
 16 44  1  0
 16 45  1  0
 18 46  1  0
 21 47  1  0
 23 48  1  0
 24 49  1  0
 25 50  1  0
 27 51  1  0
 29 52  1  0
M  END
>  <energy_abs>  (143) 
60.765437043870506

>  <SMILES>  (143) 
COCCOc1cc2c(cc1OCCOC)ncnc2Nc3cccc(c3)C#C

>  <cluster_no>  (143) 
143

>  <fda_drugs_id>  (143) 
AAKJLRGGTJKAMG-UHFFFAOYSA-N

>  <initial_conformation_id>  (143) 
157

>  <minimize_method>  (143) 
MMFF

$$$$

     RDKit          3D

 52 54  0  0  0  0  0  0  0  0999 V2000
   -1.0730   -5.1485   -1.9456 C   0  0  0  0  0  0  0  0  0  0  0  0
   -0.4433   -3.8773   -2.0424 O   0  0  0  0  0  0  0  0  0  0  0  0
   -1.3356   -2.7909   -1.7926 C   0  0  0  0  0  0  0  0  0  0  0  0
   -1.5951   -2.5879   -0.2991 C   0  0  0  0  0  0  0  0  0  0  0  0
   -2.3300   -1.3899   -0.0593 O   0  0  0  0  0  0  0  0  0  0  0  0
   -1.6584   -0.2048    0.0945 C   0  0  0  0  0  0  0  0  0  0  0  0
   -0.2791   -0.0428   -0.0449 C   0  0  0  0  0  0  0  0  0  0  0  0
    0.3323    1.2265    0.1250 C   0  0  0  0  0  0  0  0  0  0  0  0
   -0.4617    2.3298    0.4567 C   0  0  0  0  0  0  0  0  0  0  0  0
   -1.8341    2.1578    0.5874 C   0  0  0  0  0  0  0  0  0  0  0  0
   -2.4480    0.9141    0.4055 C   0  0  0  0  0  0  0  0  0  0  0  0
   -3.7946    0.6795    0.5219 O   0  0  0  0  0  0  0  0  0  0  0  0
   -4.6816    1.7716    0.7532 C   0  0  0  0  0  0  0  0  0  0  0  0
   -4.8445    2.0479    2.2455 C   0  0  0  0  0  0  0  0  0  0  0  0
   -5.7345    3.1493    2.4257 O   0  0  0  0  0  0  0  0  0  0  0  0
   -5.9287    3.4432    3.8032 C   0  0  0  0  0  0  0  0  0  0  0  0
    0.0441    3.5493    0.6556 N   0  0  0  0  0  0  0  0  0  0  0  0
    1.3682    3.6801    0.5277 C   0  0  0  0  0  0  0  0  0  0  0  0
    2.2282    2.7101    0.2109 N   0  0  0  0  0  0  0  0  0  0  0  0
    1.7137    1.4860   -0.0016 C   0  0  0  0  0  0  0  0  0  0  0  0
    2.5774    0.4212   -0.3788 N   0  0  0  0  0  0  0  0  0  0  0  0
    3.9886    0.3627   -0.3130 C   0  0  0  0  0  0  0  0  0  0  0  0
    4.7341    1.0715    0.6367 C   0  0  0  0  0  0  0  0  0  0  0  0
    6.1233    0.9335    0.7157 C   0  0  0  0  0  0  0  0  0  0  0  0
    6.7879    0.0594   -0.1411 C   0  0  0  0  0  0  0  0  0  0  0  0
    6.0606   -0.6852   -1.0680 C   0  0  0  0  0  0  0  0  0  0  0  0
    4.6703   -0.5426   -1.1430 C   0  0  0  0  0  0  0  0  0  0  0  0
    6.7338   -1.6005   -1.9380 C   0  0  0  0  0  0  0  0  0  0  0  0
    7.2985   -2.3685   -2.6683 C   0  0  0  0  0  0  0  0  0  0  0  0
   -1.4121   -5.3391   -0.9240 H   0  0  0  0  0  0  0  0  0  0  0  0
   -0.3388   -5.9139   -2.2117 H   0  0  0  0  0  0  0  0  0  0  0  0
   -1.9133   -5.2167   -2.6431 H   0  0  0  0  0  0  0  0  0  0  0  0
   -2.2763   -2.9230   -2.3413 H   0  0  0  0  0  0  0  0  0  0  0  0
   -0.8687   -1.8955   -2.2156 H   0  0  0  0  0  0  0  0  0  0  0  0
   -2.2233   -3.4099    0.0630 H   0  0  0  0  0  0  0  0  0  0  0  0
   -0.6814   -2.6543    0.3030 H   0  0  0  0  0  0  0  0  0  0  0  0
    0.3562   -0.8909   -0.2773 H   0  0  0  0  0  0  0  0  0  0  0  0
   -2.4109    3.0404    0.8459 H   0  0  0  0  0  0  0  0  0  0  0  0
   -4.4123    2.6685    0.1829 H   0  0  0  0  0  0  0  0  0  0  0  0
   -5.6584    1.4758    0.3506 H   0  0  0  0  0  0  0  0  0  0  0  0
   -5.2443    1.1564    2.7437 H   0  0  0  0  0  0  0  0  0  0  0  0
   -3.8766    2.2764    2.7050 H   0  0  0  0  0  0  0  0  0  0  0  0
   -6.6163    4.2896    3.8809 H   0  0  0  0  0  0  0  0  0  0  0  0
   -4.9799    3.7192    4.2733 H   0  0  0  0  0  0  0  0  0  0  0  0
   -6.3703    2.5854    4.3193 H   0  0  0  0  0  0  0  0  0  0  0  0
    1.7830    4.6682    0.6945 H   0  0  0  0  0  0  0  0  0  0  0  0
    2.2330    0.0090   -1.2402 H   0  0  0  0  0  0  0  0  0  0  0  0
    4.2406    1.7407    1.3365 H   0  0  0  0  0  0  0  0  0  0  0  0
    6.6814    1.5047    1.4527 H   0  0  0  0  0  0  0  0  0  0  0  0
    7.8678   -0.0443   -0.0734 H   0  0  0  0  0  0  0  0  0  0  0  0
    4.1180   -1.1445   -1.8607 H   0  0  0  0  0  0  0  0  0  0  0  0
    7.8001   -3.0493   -3.3159 H   0  0  0  0  0  0  0  0  0  0  0  0
  1  2  1  0
  2  3  1  0
  3  4  1  0
  4  5  1  0
  5  6  1  0
  6  7  2  0
  7  8  1  0
  8  9  2  0
  9 10  1  0
 10 11  2  0
 11 12  1  0
 12 13  1  0
 13 14  1  0
 14 15  1  0
 15 16  1  0
  9 17  1  0
 17 18  2  0
 18 19  1  0
 19 20  2  0
 20 21  1  0
 21 22  1  0
 22 23  2  0
 23 24  1  0
 24 25  2  0
 25 26  1  0
 26 27  2  0
 26 28  1  0
 28 29  3  0
 11  6  1  0
 20  8  1  0
 27 22  1  0
  1 30  1  0
  1 31  1  0
  1 32  1  0
  3 33  1  0
  3 34  1  0
  4 35  1  0
  4 36  1  0
  7 37  1  0
 10 38  1  0
 13 39  1  0
 13 40  1  0
 14 41  1  0
 14 42  1  0
 16 43  1  0
 16 44  1  0
 16 45  1  0
 18 46  1  0
 21 47  1  0
 23 48  1  0
 24 49  1  0
 25 50  1  0
 27 51  1  0
 29 52  1  0
M  END
>  <energy_abs>  (144) 
60.07245953049885

>  <SMILES>  (144) 
COCCOc1cc2c(cc1OCCOC)ncnc2Nc3cccc(c3)C#C

>  <cluster_no>  (144) 
144

>  <fda_drugs_id>  (144) 
AAKJLRGGTJKAMG-UHFFFAOYSA-N

>  <initial_conformation_id>  (144) 
156

>  <minimize_method>  (144) 
MMFF

$$$$

     RDKit          3D

 52 54  0  0  0  0  0  0  0  0999 V2000
   -5.0610   -2.9158    0.0905 C   0  0  0  0  0  0  0  0  0  0  0  0
   -4.4711   -2.6196   -1.1678 O   0  0  0  0  0  0  0  0  0  0  0  0
   -3.1408   -3.1322   -1.3079 C   0  0  0  0  0  0  0  0  0  0  0  0
   -2.0912   -2.3035   -0.5597 C   0  0  0  0  0  0  0  0  0  0  0  0
   -1.9402   -1.0378   -1.2205 O   0  0  0  0  0  0  0  0  0  0  0  0
   -1.2427   -0.1601   -0.4323 C   0  0  0  0  0  0  0  0  0  0  0  0
    0.1087    0.0248   -0.7092 C   0  0  0  0  0  0  0  0  0  0  0  0
    0.8700    0.9537    0.0380 C   0  0  0  0  0  0  0  0  0  0  0  0
    0.2455    1.6879    1.0575 C   0  0  0  0  0  0  0  0  0  0  0  0
   -1.1126    1.4998    1.2979 C   0  0  0  0  0  0  0  0  0  0  0  0
   -1.8761    0.5926    0.5593 C   0  0  0  0  0  0  0  0  0  0  0  0
   -3.2108    0.3561    0.7414 O   0  0  0  0  0  0  0  0  0  0  0  0
   -3.9408    1.2774    1.5488 C   0  0  0  0  0  0  0  0  0  0  0  0
   -5.4189    0.8925    1.4971 C   0  0  0  0  0  0  0  0  0  0  0  0
   -6.2204    1.7534    2.3062 O   0  0  0  0  0  0  0  0  0  0  0  0
   -6.6166    2.9368    1.6244 C   0  0  0  0  0  0  0  0  0  0  0  0
    0.9024    2.5684    1.8157 N   0  0  0  0  0  0  0  0  0  0  0  0
    2.2072    2.7216    1.5664 C   0  0  0  0  0  0  0  0  0  0  0  0
    2.9105    2.0855    0.6267 N   0  0  0  0  0  0  0  0  0  0  0  0
    2.2441    1.2094   -0.1455 C   0  0  0  0  0  0  0  0  0  0  0  0
    2.9359    0.5270   -1.1843 N   0  0  0  0  0  0  0  0  0  0  0  0
    4.3320    0.4189   -1.3838 C   0  0  0  0  0  0  0  0  0  0  0  0
    4.8167    0.1615   -2.6768 C   0  0  0  0  0  0  0  0  0  0  0  0
    6.1827   -0.0191   -2.9140 C   0  0  0  0  0  0  0  0  0  0  0  0
    7.0856    0.0313   -1.8538 C   0  0  0  0  0  0  0  0  0  0  0  0
    6.6194    0.2478   -0.5574 C   0  0  0  0  0  0  0  0  0  0  0  0
    5.2509    0.4271   -0.3262 C   0  0  0  0  0  0  0  0  0  0  0  0
    7.5402    0.2742    0.5384 C   0  0  0  0  0  0  0  0  0  0  0  0
    8.3103    0.2949    1.4601 C   0  0  0  0  0  0  0  0  0  0  0  0
   -5.0845   -3.9969    0.2609 H   0  0  0  0  0  0  0  0  0  0  0  0
   -4.5270   -2.4187    0.9046 H   0  0  0  0  0  0  0  0  0  0  0  0
   -6.0905   -2.5445    0.0825 H   0  0  0  0  0  0  0  0  0  0  0  0
   -2.9174   -3.1130   -2.3804 H   0  0  0  0  0  0  0  0  0  0  0  0
   -3.1146   -4.1779   -0.9799 H   0  0  0  0  0  0  0  0  0  0  0  0
   -2.3784   -2.1744    0.4891 H   0  0  0  0  0  0  0  0  0  0  0  0
   -1.1297   -2.8283   -0.5986 H   0  0  0  0  0  0  0  0  0  0  0  0
    0.5659   -0.5679   -1.4970 H   0  0  0  0  0  0  0  0  0  0  0  0
   -1.5567    2.0877    2.0964 H   0  0  0  0  0  0  0  0  0  0  0  0
   -3.8075    2.3003    1.1785 H   0  0  0  0  0  0  0  0  0  0  0  0
   -3.6000    1.2322    2.5903 H   0  0  0  0  0  0  0  0  0  0  0  0
   -5.5333   -0.1235    1.8924 H   0  0  0  0  0  0  0  0  0  0  0  0
   -5.7885    0.8589    0.4642 H   0  0  0  0  0  0  0  0  0  0  0  0
   -7.2207    3.5394    2.3091 H   0  0  0  0  0  0  0  0  0  0  0  0
   -5.7467    3.5262    1.3214 H   0  0  0  0  0  0  0  0  0  0  0  0
   -7.2263    2.6878    0.7505 H   0  0  0  0  0  0  0  0  0  0  0  0
    2.7455    3.4316    2.1846 H   0  0  0  0  0  0  0  0  0  0  0  0
    2.4473    0.6875   -2.0596 H   0  0  0  0  0  0  0  0  0  0  0  0
    4.1322    0.1006   -3.5190 H   0  0  0  0  0  0  0  0  0  0  0  0
    6.5399   -0.2063   -3.9228 H   0  0  0  0  0  0  0  0  0  0  0  0
    8.1467   -0.1128   -2.0412 H   0  0  0  0  0  0  0  0  0  0  0  0
    4.9033    0.5654    0.6948 H   0  0  0  0  0  0  0  0  0  0  0  0
    8.9903    0.3140    2.2800 H   0  0  0  0  0  0  0  0  0  0  0  0
  1  2  1  0
  2  3  1  0
  3  4  1  0
  4  5  1  0
  5  6  1  0
  6  7  2  0
  7  8  1  0
  8  9  2  0
  9 10  1  0
 10 11  2  0
 11 12  1  0
 12 13  1  0
 13 14  1  0
 14 15  1  0
 15 16  1  0
  9 17  1  0
 17 18  2  0
 18 19  1  0
 19 20  2  0
 20 21  1  0
 21 22  1  0
 22 23  2  0
 23 24  1  0
 24 25  2  0
 25 26  1  0
 26 27  2  0
 26 28  1  0
 28 29  3  0
 11  6  1  0
 20  8  1  0
 27 22  1  0
  1 30  1  0
  1 31  1  0
  1 32  1  0
  3 33  1  0
  3 34  1  0
  4 35  1  0
  4 36  1  0
  7 37  1  0
 10 38  1  0
 13 39  1  0
 13 40  1  0
 14 41  1  0
 14 42  1  0
 16 43  1  0
 16 44  1  0
 16 45  1  0
 18 46  1  0
 21 47  1  0
 23 48  1  0
 24 49  1  0
 25 50  1  0
 27 51  1  0
 29 52  1  0
M  END
>  <energy_abs>  (145) 
59.91118236447644

>  <SMILES>  (145) 
COCCOc1cc2c(cc1OCCOC)ncnc2Nc3cccc(c3)C#C

>  <cluster_no>  (145) 
145

>  <fda_drugs_id>  (145) 
AAKJLRGGTJKAMG-UHFFFAOYSA-N

>  <initial_conformation_id>  (145) 
155

>  <minimize_method>  (145) 
MMFF

$$$$

     RDKit          3D

 52 54  0  0  0  0  0  0  0  0999 V2000
   -1.5649   -5.2744   -0.9412 C   0  0  0  0  0  0  0  0  0  0  0  0
   -2.0288   -4.3467   -1.9116 O   0  0  0  0  0  0  0  0  0  0  0  0
   -2.6311   -3.1919   -1.3276 C   0  0  0  0  0  0  0  0  0  0  0  0
   -1.5929   -2.1368   -0.9510 C   0  0  0  0  0  0  0  0  0  0  0  0
   -2.2780   -0.9953   -0.4359 O   0  0  0  0  0  0  0  0  0  0  0  0
   -1.5175   -0.0226    0.1505 C   0  0  0  0  0  0  0  0  0  0  0  0
   -0.1399    0.1243   -0.0077 C   0  0  0  0  0  0  0  0  0  0  0  0
    0.5693    1.1697    0.6496 C   0  0  0  0  0  0  0  0  0  0  0  0
   -0.1243    2.0556    1.4880 C   0  0  0  0  0  0  0  0  0  0  0  0
   -1.4939    1.9044    1.6305 C   0  0  0  0  0  0  0  0  0  0  0  0
   -2.1885    0.8997    0.9543 C   0  0  0  0  0  0  0  0  0  0  0  0
   -3.5401    0.8180    1.1699 O   0  0  0  0  0  0  0  0  0  0  0  0
   -4.2614    1.4039    0.0769 C   0  0  0  0  0  0  0  0  0  0  0  0
   -5.5753    1.9763    0.6081 C   0  0  0  0  0  0  0  0  0  0  0  0
   -5.3031    3.1533    1.3743 O   0  0  0  0  0  0  0  0  0  0  0  0
   -6.4916    3.7149    1.9131 C   0  0  0  0  0  0  0  0  0  0  0  0
    0.4776    3.0440    2.1527 N   0  0  0  0  0  0  0  0  0  0  0  0
    1.7981    3.1605    1.9904 C   0  0  0  0  0  0  0  0  0  0  0  0
    2.5672    2.3890    1.2219 N   0  0  0  0  0  0  0  0  0  0  0  0
    1.9573    1.4001    0.5443 C   0  0  0  0  0  0  0  0  0  0  0  0
    2.7242    0.5665   -0.3156 N   0  0  0  0  0  0  0  0  0  0  0  0
    4.1303    0.4311   -0.3944 C   0  0  0  0  0  0  0  0  0  0  0  0
    4.9814    0.6688    0.6923 C   0  0  0  0  0  0  0  0  0  0  0  0
    6.3602    0.4560    0.5937 C   0  0  0  0  0  0  0  0  0  0  0  0
    6.9075   -0.0332   -0.5899 C   0  0  0  0  0  0  0  0  0  0  0  0
    6.0730   -0.3216   -1.6686 C   0  0  0  0  0  0  0  0  0  0  0  0
    4.6944   -0.1010   -1.5655 C   0  0  0  0  0  0  0  0  0  0  0  0
    6.6238   -0.8542   -2.8779 C   0  0  0  0  0  0  0  0  0  0  0  0
    7.0856   -1.3037   -3.8944 C   0  0  0  0  0  0  0  0  0  0  0  0
   -2.3947   -5.6138   -0.3149 H   0  0  0  0  0  0  0  0  0  0  0  0
   -1.1463   -6.1393   -1.4662 H   0  0  0  0  0  0  0  0  0  0  0  0
   -0.7812   -4.8349   -0.3213 H   0  0  0  0  0  0  0  0  0  0  0  0
   -3.2522   -3.4638   -0.4649 H   0  0  0  0  0  0  0  0  0  0  0  0
   -3.3167   -2.7675   -2.0703 H   0  0  0  0  0  0  0  0  0  0  0  0
   -1.0176   -1.8648   -1.8452 H   0  0  0  0  0  0  0  0  0  0  0  0
   -0.9058   -2.5459   -0.2011 H   0  0  0  0  0  0  0  0  0  0  0  0
    0.4154   -0.5678   -0.6334 H   0  0  0  0  0  0  0  0  0  0  0  0
   -2.0425    2.5868    2.2769 H   0  0  0  0  0  0  0  0  0  0  0  0
   -4.4777    0.6212   -0.6518 H   0  0  0  0  0  0  0  0  0  0  0  0
   -3.6837    2.2009   -0.4071 H   0  0  0  0  0  0  0  0  0  0  0  0
   -6.2245    2.2424   -0.2347 H   0  0  0  0  0  0  0  0  0  0  0  0
   -6.0801    1.2422    1.2456 H   0  0  0  0  0  0  0  0  0  0  0  0
   -7.0067    2.9901    2.5494 H   0  0  0  0  0  0  0  0  0  0  0  0
   -6.2153    4.5795    2.5222 H   0  0  0  0  0  0  0  0  0  0  0  0
   -7.1551    4.0474    1.1095 H   0  0  0  0  0  0  0  0  0  0  0  0
    2.2914    3.9592    2.5318 H   0  0  0  0  0  0  0  0  0  0  0  0
    2.3098    0.5899   -1.2413 H   0  0  0  0  0  0  0  0  0  0  0  0
    4.5819    1.0209    1.6403 H   0  0  0  0  0  0  0  0  0  0  0  0
    7.0013    0.6658    1.4457 H   0  0  0  0  0  0  0  0  0  0  0  0
    7.9793   -0.2003   -0.6592 H   0  0  0  0  0  0  0  0  0  0  0  0
    4.0584   -0.3506   -2.4118 H   0  0  0  0  0  0  0  0  0  0  0  0
    7.4978   -1.7040   -4.7927 H   0  0  0  0  0  0  0  0  0  0  0  0
  1  2  1  0
  2  3  1  0
  3  4  1  0
  4  5  1  0
  5  6  1  0
  6  7  2  0
  7  8  1  0
  8  9  2  0
  9 10  1  0
 10 11  2  0
 11 12  1  0
 12 13  1  0
 13 14  1  0
 14 15  1  0
 15 16  1  0
  9 17  1  0
 17 18  2  0
 18 19  1  0
 19 20  2  0
 20 21  1  0
 21 22  1  0
 22 23  2  0
 23 24  1  0
 24 25  2  0
 25 26  1  0
 26 27  2  0
 26 28  1  0
 28 29  3  0
 11  6  1  0
 20  8  1  0
 27 22  1  0
  1 30  1  0
  1 31  1  0
  1 32  1  0
  3 33  1  0
  3 34  1  0
  4 35  1  0
  4 36  1  0
  7 37  1  0
 10 38  1  0
 13 39  1  0
 13 40  1  0
 14 41  1  0
 14 42  1  0
 16 43  1  0
 16 44  1  0
 16 45  1  0
 18 46  1  0
 21 47  1  0
 23 48  1  0
 24 49  1  0
 25 50  1  0
 27 51  1  0
 29 52  1  0
M  END
>  <energy_abs>  (146) 
58.66011964989007

>  <SMILES>  (146) 
COCCOc1cc2c(cc1OCCOC)ncnc2Nc3cccc(c3)C#C

>  <cluster_no>  (146) 
146

>  <fda_drugs_id>  (146) 
AAKJLRGGTJKAMG-UHFFFAOYSA-N

>  <initial_conformation_id>  (146) 
154

>  <minimize_method>  (146) 
MMFF

$$$$

     RDKit          3D

 52 54  0  0  0  0  0  0  0  0999 V2000
   -4.0231   -2.2660   -3.0883 C   0  0  0  0  0  0  0  0  0  0  0  0
   -2.8442   -3.0095   -2.8083 O   0  0  0  0  0  0  0  0  0  0  0  0
   -1.9882   -2.3706   -1.8577 C   0  0  0  0  0  0  0  0  0  0  0  0
   -2.5059   -2.5009   -0.4211 C   0  0  0  0  0  0  0  0  0  0  0  0
   -1.5573   -2.0611    0.5617 O   0  0  0  0  0  0  0  0  0  0  0  0
   -1.2639   -0.7235    0.5142 C   0  0  0  0  0  0  0  0  0  0  0  0
    0.0820   -0.4167    0.3049 C   0  0  0  0  0  0  0  0  0  0  0  0
    0.5220    0.9264    0.2567 C   0  0  0  0  0  0  0  0  0  0  0  0
   -0.4157    1.9526    0.4214 C   0  0  0  0  0  0  0  0  0  0  0  0
   -1.7468    1.6234    0.6617 C   0  0  0  0  0  0  0  0  0  0  0  0
   -2.1922    0.2990    0.7313 C   0  0  0  0  0  0  0  0  0  0  0  0
   -3.4722   -0.0806    1.0270 O   0  0  0  0  0  0  0  0  0  0  0  0
   -4.4625    0.9160    1.2788 C   0  0  0  0  0  0  0  0  0  0  0  0
   -4.4358    1.3838    2.7349 C   0  0  0  0  0  0  0  0  0  0  0  0
   -5.4110    2.3947    2.9881 O   0  0  0  0  0  0  0  0  0  0  0  0
   -4.9732    3.6961    2.6180 C   0  0  0  0  0  0  0  0  0  0  0  0
   -0.0871    3.2450    0.3678 N   0  0  0  0  0  0  0  0  0  0  0  0
    1.2001    3.5282    0.1399 C   0  0  0  0  0  0  0  0  0  0  0  0
    2.1846    2.6422   -0.0257 N   0  0  0  0  0  0  0  0  0  0  0  0
    1.8534    1.3407    0.0446 C   0  0  0  0  0  0  0  0  0  0  0  0
    2.8650    0.3508   -0.0897 N   0  0  0  0  0  0  0  0  0  0  0  0
    4.2010    0.5042   -0.5271 C   0  0  0  0  0  0  0  0  0  0  0  0
    4.5941    1.4934   -1.4364 C   0  0  0  0  0  0  0  0  0  0  0  0
    5.9132    1.5718   -1.8944 C   0  0  0  0  0  0  0  0  0  0  0  0
    6.8577    0.6412   -1.4677 C   0  0  0  0  0  0  0  0  0  0  0  0
    6.4789   -0.3744   -0.5920 C   0  0  0  0  0  0  0  0  0  0  0  0
    5.1574   -0.4473   -0.1356 C   0  0  0  0  0  0  0  0  0  0  0  0
    7.4400   -1.3453   -0.1652 C   0  0  0  0  0  0  0  0  0  0  0  0
    8.2484   -2.1591    0.1876 C   0  0  0  0  0  0  0  0  0  0  0  0
   -4.6772   -2.2337   -2.2134 H   0  0  0  0  0  0  0  0  0  0  0  0
   -3.7748   -1.2524   -3.4174 H   0  0  0  0  0  0  0  0  0  0  0  0
   -4.5598   -2.7706   -3.8969 H   0  0  0  0  0  0  0  0  0  0  0  0
   -1.0068   -2.8551   -1.9274 H   0  0  0  0  0  0  0  0  0  0  0  0
   -1.8310   -1.3231   -2.1408 H   0  0  0  0  0  0  0  0  0  0  0  0
   -2.6915   -3.5630   -0.2185 H   0  0  0  0  0  0  0  0  0  0  0  0
   -3.4793   -2.0198   -0.2942 H   0  0  0  0  0  0  0  0  0  0  0  0
    0.7828   -1.2348    0.1571 H   0  0  0  0  0  0  0  0  0  0  0  0
   -2.4269    2.4561    0.8085 H   0  0  0  0  0  0  0  0  0  0  0  0
   -5.4357    0.4455    1.0917 H   0  0  0  0  0  0  0  0  0  0  0  0
   -4.4164    1.7354    0.5534 H   0  0  0  0  0  0  0  0  0  0  0  0
   -4.6770    0.5316    3.3784 H   0  0  0  0  0  0  0  0  0  0  0  0
   -3.4415    1.7205    3.0455 H   0  0  0  0  0  0  0  0  0  0  0  0
   -4.0519    3.9580    3.1467 H   0  0  0  0  0  0  0  0  0  0  0  0
   -5.7507    4.4117    2.9006 H   0  0  0  0  0  0  0  0  0  0  0  0
   -4.8228    3.7636    1.5368 H   0  0  0  0  0  0  0  0  0  0  0  0
    1.4717    4.5774    0.0876 H   0  0  0  0  0  0  0  0  0  0  0  0
    2.8072   -0.2876    0.6977 H   0  0  0  0  0  0  0  0  0  0  0  0
    3.8750    2.2180   -1.8078 H   0  0  0  0  0  0  0  0  0  0  0  0
    6.1979    2.3573   -2.5897 H   0  0  0  0  0  0  0  0  0  0  0  0
    7.8816    0.7085   -1.8281 H   0  0  0  0  0  0  0  0  0  0  0  0
    4.8771   -1.2549    0.5372 H   0  0  0  0  0  0  0  0  0  0  0  0
    8.9674   -2.8815    0.4963 H   0  0  0  0  0  0  0  0  0  0  0  0
  1  2  1  0
  2  3  1  0
  3  4  1  0
  4  5  1  0
  5  6  1  0
  6  7  2  0
  7  8  1  0
  8  9  2  0
  9 10  1  0
 10 11  2  0
 11 12  1  0
 12 13  1  0
 13 14  1  0
 14 15  1  0
 15 16  1  0
  9 17  1  0
 17 18  2  0
 18 19  1  0
 19 20  2  0
 20 21  1  0
 21 22  1  0
 22 23  2  0
 23 24  1  0
 24 25  2  0
 25 26  1  0
 26 27  2  0
 26 28  1  0
 28 29  3  0
 11  6  1  0
 20  8  1  0
 27 22  1  0
  1 30  1  0
  1 31  1  0
  1 32  1  0
  3 33  1  0
  3 34  1  0
  4 35  1  0
  4 36  1  0
  7 37  1  0
 10 38  1  0
 13 39  1  0
 13 40  1  0
 14 41  1  0
 14 42  1  0
 16 43  1  0
 16 44  1  0
 16 45  1  0
 18 46  1  0
 21 47  1  0
 23 48  1  0
 24 49  1  0
 25 50  1  0
 27 51  1  0
 29 52  1  0
M  END
>  <energy_abs>  (147) 
61.84679043048324

>  <SMILES>  (147) 
COCCOc1cc2c(cc1OCCOC)ncnc2Nc3cccc(c3)C#C

>  <cluster_no>  (147) 
147

>  <fda_drugs_id>  (147) 
AAKJLRGGTJKAMG-UHFFFAOYSA-N

>  <initial_conformation_id>  (147) 
153

>  <minimize_method>  (147) 
MMFF

$$$$

     RDKit          3D

 52 54  0  0  0  0  0  0  0  0999 V2000
   -4.3745   -4.0445   -1.6488 C   0  0  0  0  0  0  0  0  0  0  0  0
   -2.9701   -3.9346   -1.4298 O   0  0  0  0  0  0  0  0  0  0  0  0
   -2.3741   -2.8404   -2.1352 C   0  0  0  0  0  0  0  0  0  0  0  0
   -2.5489   -1.5092   -1.4083 C   0  0  0  0  0  0  0  0  0  0  0  0
   -1.7037   -1.5008   -0.2470 O   0  0  0  0  0  0  0  0  0  0  0  0
   -1.2442   -0.2430    0.0460 C   0  0  0  0  0  0  0  0  0  0  0  0
    0.1373   -0.0638    0.0205 C   0  0  0  0  0  0  0  0  0  0  0  0
    0.7085    1.2020    0.2905 C   0  0  0  0  0  0  0  0  0  0  0  0
   -0.1358    2.2805    0.5999 C   0  0  0  0  0  0  0  0  0  0  0  0
   -1.5084    2.0711    0.6595 C   0  0  0  0  0  0  0  0  0  0  0  0
   -2.0712    0.8173    0.4118 C   0  0  0  0  0  0  0  0  0  0  0  0
   -3.4265    0.6279    0.4472 O   0  0  0  0  0  0  0  0  0  0  0  0
   -4.0210    0.9669    1.7078 C   0  0  0  0  0  0  0  0  0  0  0  0
   -5.0875    2.0389    1.4915 C   0  0  0  0  0  0  0  0  0  0  0  0
   -5.6667    2.4924    2.7158 O   0  0  0  0  0  0  0  0  0  0  0  0
   -6.6142    1.5906    3.2589 C   0  0  0  0  0  0  0  0  0  0  0  0
    0.3223    3.5096    0.8360 N   0  0  0  0  0  0  0  0  0  0  0  0
    1.6470    3.6780    0.7586 C   0  0  0  0  0  0  0  0  0  0  0  0
    2.5525    2.7316    0.4778 N   0  0  0  0  0  0  0  0  0  0  0  0
    2.0879    1.4953    0.2495 C   0  0  0  0  0  0  0  0  0  0  0  0
    3.0032    0.4547   -0.0607 N   0  0  0  0  0  0  0  0  0  0  0  0
    4.3561    0.5470   -0.4557 C   0  0  0  0  0  0  0  0  0  0  0  0
    4.8809    1.6682   -1.1100 C   0  0  0  0  0  0  0  0  0  0  0  0
    6.2043    1.6952   -1.5569 C   0  0  0  0  0  0  0  0  0  0  0  0
    7.0195    0.5834   -1.3808 C   0  0  0  0  0  0  0  0  0  0  0  0
    6.5075   -0.5603   -0.7657 C   0  0  0  0  0  0  0  0  0  0  0  0
    5.1827   -0.5790   -0.3170 C   0  0  0  0  0  0  0  0  0  0  0  0
    7.3307   -1.7219   -0.6161 C   0  0  0  0  0  0  0  0  0  0  0  0
    8.0252   -2.6986   -0.5101 C   0  0  0  0  0  0  0  0  0  0  0  0
   -4.7410   -4.9159   -1.1013 H   0  0  0  0  0  0  0  0  0  0  0  0
   -4.5831   -4.1922   -2.7141 H   0  0  0  0  0  0  0  0  0  0  0  0
   -4.9051   -3.1629   -1.2741 H   0  0  0  0  0  0  0  0  0  0  0  0
   -1.3093   -3.0689   -2.2187 H   0  0  0  0  0  0  0  0  0  0  0  0
   -2.7833   -2.7822   -3.1480 H   0  0  0  0  0  0  0  0  0  0  0  0
   -2.2772   -0.7002   -2.0996 H   0  0  0  0  0  0  0  0  0  0  0  0
   -3.5839   -1.3791   -1.0864 H   0  0  0  0  0  0  0  0  0  0  0  0
    0.7650   -0.9118   -0.2437 H   0  0  0  0  0  0  0  0  0  0  0  0
   -2.1488    2.9176    0.8932 H   0  0  0  0  0  0  0  0  0  0  0  0
   -3.2988    1.2844    2.4696 H   0  0  0  0  0  0  0  0  0  0  0  0
   -4.4845    0.0549    2.0984 H   0  0  0  0  0  0  0  0  0  0  0  0
   -4.6244    2.9101    1.0102 H   0  0  0  0  0  0  0  0  0  0  0  0
   -5.8660    1.6935    0.7974 H   0  0  0  0  0  0  0  0  0  0  0  0
   -7.3967    1.3686    2.5295 H   0  0  0  0  0  0  0  0  0  0  0  0
   -6.1286    0.6691    3.5848 H   0  0  0  0  0  0  0  0  0  0  0  0
   -7.0714    2.0645    4.1328 H   0  0  0  0  0  0  0  0  0  0  0  0
    2.0223    4.6753    0.9402 H   0  0  0  0  0  0  0  0  0  0  0  0
    2.8412   -0.3334    0.5574 H   0  0  0  0  0  0  0  0  0  0  0  0
    4.2611    2.5406   -1.2964 H   0  0  0  0  0  0  0  0  0  0  0  0
    6.5901    2.5815   -2.0544 H   0  0  0  0  0  0  0  0  0  0  0  0
    8.0452    0.6083   -1.7381 H   0  0  0  0  0  0  0  0  0  0  0  0
    4.7937   -1.4850    0.1371 H   0  0  0  0  0  0  0  0  0  0  0  0
    8.6421   -3.5632   -0.4317 H   0  0  0  0  0  0  0  0  0  0  0  0
  1  2  1  0
  2  3  1  0
  3  4  1  0
  4  5  1  0
  5  6  1  0
  6  7  2  0
  7  8  1  0
  8  9  2  0
  9 10  1  0
 10 11  2  0
 11 12  1  0
 12 13  1  0
 13 14  1  0
 14 15  1  0
 15 16  1  0
  9 17  1  0
 17 18  2  0
 18 19  1  0
 19 20  2  0
 20 21  1  0
 21 22  1  0
 22 23  2  0
 23 24  1  0
 24 25  2  0
 25 26  1  0
 26 27  2  0
 26 28  1  0
 28 29  3  0
 11  6  1  0
 20  8  1  0
 27 22  1  0
  1 30  1  0
  1 31  1  0
  1 32  1  0
  3 33  1  0
  3 34  1  0
  4 35  1  0
  4 36  1  0
  7 37  1  0
 10 38  1  0
 13 39  1  0
 13 40  1  0
 14 41  1  0
 14 42  1  0
 16 43  1  0
 16 44  1  0
 16 45  1  0
 18 46  1  0
 21 47  1  0
 23 48  1  0
 24 49  1  0
 25 50  1  0
 27 51  1  0
 29 52  1  0
M  END
>  <energy_abs>  (148) 
62.109942000400935

>  <SMILES>  (148) 
COCCOc1cc2c(cc1OCCOC)ncnc2Nc3cccc(c3)C#C

>  <cluster_no>  (148) 
148

>  <fda_drugs_id>  (148) 
AAKJLRGGTJKAMG-UHFFFAOYSA-N

>  <initial_conformation_id>  (148) 
152

>  <minimize_method>  (148) 
MMFF

$$$$

     RDKit          3D

 52 54  0  0  0  0  0  0  0  0999 V2000
   -1.4213   -4.9223   -1.2745 C   0  0  0  0  0  0  0  0  0  0  0  0
   -0.7063   -3.7249   -1.5512 O   0  0  0  0  0  0  0  0  0  0  0  0
   -1.5070   -2.5506   -1.4158 C   0  0  0  0  0  0  0  0  0  0  0  0
   -1.7233   -2.1584    0.0462 C   0  0  0  0  0  0  0  0  0  0  0  0
   -2.3460   -0.8795    0.1431 O   0  0  0  0  0  0  0  0  0  0  0  0
   -1.5611    0.2372    0.2682 C   0  0  0  0  0  0  0  0  0  0  0  0
   -0.1811    0.2693    0.0608 C   0  0  0  0  0  0  0  0  0  0  0  0
    0.5534    1.4769    0.1907 C   0  0  0  0  0  0  0  0  0  0  0  0
   -0.1180    2.6519    0.5478 C   0  0  0  0  0  0  0  0  0  0  0  0
   -1.4921    2.6090    0.7452 C   0  0  0  0  0  0  0  0  0  0  0  0
   -2.2261    1.4259    0.6059 C   0  0  0  0  0  0  0  0  0  0  0  0
   -3.5834    1.3268    0.7843 O   0  0  0  0  0  0  0  0  0  0  0  0
   -4.3052    2.5164    1.1172 C   0  0  0  0  0  0  0  0  0  0  0  0
   -5.7868    2.1664    1.2594 C   0  0  0  0  0  0  0  0  0  0  0  0
   -6.0071    1.5150    2.5150 O   0  0  0  0  0  0  0  0  0  0  0  0
   -7.3569    1.0955    2.6585 C   0  0  0  0  0  0  0  0  0  0  0  0
    0.5069    3.8215    0.7055 N   0  0  0  0  0  0  0  0  0  0  0  0
    1.8298    3.8269    0.5147 C   0  0  0  0  0  0  0  0  0  0  0  0
    2.5801    2.7791    0.1685 N   0  0  0  0  0  0  0  0  0  0  0  0
    1.9451    1.6062   -0.0045 C   0  0  0  0  0  0  0  0  0  0  0  0
    2.6881    0.4635   -0.4091 N   0  0  0  0  0  0  0  0  0  0  0  0
    4.0894    0.2756   -0.4117 C   0  0  0  0  0  0  0  0  0  0  0  0
    4.9432    0.9209    0.4910 C   0  0  0  0  0  0  0  0  0  0  0  0
    6.3163    0.6568    0.5032 C   0  0  0  0  0  0  0  0  0  0  0  0
    6.8547   -0.2814   -0.3743 C   0  0  0  0  0  0  0  0  0  0  0  0
    6.0169   -0.9637   -1.2547 C   0  0  0  0  0  0  0  0  0  0  0  0
    4.6433   -0.6950   -1.2627 C   0  0  0  0  0  0  0  0  0  0  0  0
    6.5592   -1.9439   -2.1451 C   0  0  0  0  0  0  0  0  0  0  0  0
    7.0139   -2.7667   -2.8923 C   0  0  0  0  0  0  0  0  0  0  0  0
   -0.7577   -5.7689   -1.4710 H   0  0  0  0  0  0  0  0  0  0  0  0
   -1.7249   -4.9614   -0.2250 H   0  0  0  0  0  0  0  0  0  0  0  0
   -2.2962   -5.0088   -1.9259 H   0  0  0  0  0  0  0  0  0  0  0  0
   -2.4651   -2.6704   -1.9364 H   0  0  0  0  0  0  0  0  0  0  0  0
   -0.9819   -1.7471   -1.9426 H   0  0  0  0  0  0  0  0  0  0  0  0
   -0.8080   -2.2371    0.6449 H   0  0  0  0  0  0  0  0  0  0  0  0
   -2.4164   -2.8733    0.5043 H   0  0  0  0  0  0  0  0  0  0  0  0
    0.3577   -0.6353   -0.2002 H   0  0  0  0  0  0  0  0  0  0  0  0
   -1.9763    3.5413    1.0184 H   0  0  0  0  0  0  0  0  0  0  0  0
   -4.1933    3.2445    0.3057 H   0  0  0  0  0  0  0  0  0  0  0  0
   -3.9324    2.9267    2.0628 H   0  0  0  0  0  0  0  0  0  0  0  0
   -6.1008    1.5034    0.4450 H   0  0  0  0  0  0  0  0  0  0  0  0
   -6.3830    3.0852    1.2376 H   0  0  0  0  0  0  0  0  0  0  0  0
   -7.6159    0.3669    1.8844 H   0  0  0  0  0  0  0  0  0  0  0  0
   -8.0326    1.9547    2.6091 H   0  0  0  0  0  0  0  0  0  0  0  0
   -7.4676    0.6195    3.6365 H   0  0  0  0  0  0  0  0  0  0  0  0
    2.3421    4.7731    0.6511 H   0  0  0  0  0  0  0  0  0  0  0  0
    2.2635    0.0739   -1.2446 H   0  0  0  0  0  0  0  0  0  0  0  0
    4.5484    1.6377    1.2061 H   0  0  0  0  0  0  0  0  0  0  0  0
    6.9602    1.1801    1.2050 H   0  0  0  0  0  0  0  0  0  0  0  0
    7.9226   -0.4832   -0.3584 H   0  0  0  0  0  0  0  0  0  0  0  0
    4.0030   -1.2498   -1.9443 H   0  0  0  0  0  0  0  0  0  0  0  0
    7.4178   -3.4966   -3.5545 H   0  0  0  0  0  0  0  0  0  0  0  0
  1  2  1  0
  2  3  1  0
  3  4  1  0
  4  5  1  0
  5  6  1  0
  6  7  2  0
  7  8  1  0
  8  9  2  0
  9 10  1  0
 10 11  2  0
 11 12  1  0
 12 13  1  0
 13 14  1  0
 14 15  1  0
 15 16  1  0
  9 17  1  0
 17 18  2  0
 18 19  1  0
 19 20  2  0
 20 21  1  0
 21 22  1  0
 22 23  2  0
 23 24  1  0
 24 25  2  0
 25 26  1  0
 26 27  2  0
 26 28  1  0
 28 29  3  0
 11  6  1  0
 20  8  1  0
 27 22  1  0
  1 30  1  0
  1 31  1  0
  1 32  1  0
  3 33  1  0
  3 34  1  0
  4 35  1  0
  4 36  1  0
  7 37  1  0
 10 38  1  0
 13 39  1  0
 13 40  1  0
 14 41  1  0
 14 42  1  0
 16 43  1  0
 16 44  1  0
 16 45  1  0
 18 46  1  0
 21 47  1  0
 23 48  1  0
 24 49  1  0
 25 50  1  0
 27 51  1  0
 29 52  1  0
M  END
>  <energy_abs>  (149) 
60.41833345476456

>  <SMILES>  (149) 
COCCOc1cc2c(cc1OCCOC)ncnc2Nc3cccc(c3)C#C

>  <cluster_no>  (149) 
149

>  <fda_drugs_id>  (149) 
AAKJLRGGTJKAMG-UHFFFAOYSA-N

>  <initial_conformation_id>  (149) 
151

>  <minimize_method>  (149) 
MMFF

$$$$

     RDKit          3D

 52 54  0  0  0  0  0  0  0  0999 V2000
   -0.7804   -5.0337    0.1038 C   0  0  0  0  0  0  0  0  0  0  0  0
   -1.1373   -3.6999    0.4457 O   0  0  0  0  0  0  0  0  0  0  0  0
   -2.5338   -3.4595    0.2280 C   0  0  0  0  0  0  0  0  0  0  0  0
   -2.8584   -2.0033    0.5605 C   0  0  0  0  0  0  0  0  0  0  0  0
   -2.3479   -1.1676   -0.4933 O   0  0  0  0  0  0  0  0  0  0  0  0
   -1.6024   -0.1364    0.0118 C   0  0  0  0  0  0  0  0  0  0  0  0
   -0.2230   -0.2163   -0.1542 C   0  0  0  0  0  0  0  0  0  0  0  0
    0.6168    0.8110    0.3323 C   0  0  0  0  0  0  0  0  0  0  0  0
    0.0391    1.9303    0.9487 C   0  0  0  0  0  0  0  0  0  0  0  0
   -1.3462    1.9960    1.0799 C   0  0  0  0  0  0  0  0  0  0  0  0
   -2.1854    0.9794    0.6158 C   0  0  0  0  0  0  0  0  0  0  0  0
   -3.5508    0.9769    0.7134 O   0  0  0  0  0  0  0  0  0  0  0  0
   -4.1817    2.1972    1.1034 C   0  0  0  0  0  0  0  0  0  0  0  0
   -5.6954    2.0100    1.0057 C   0  0  0  0  0  0  0  0  0  0  0  0
   -6.4106    3.1713    1.4268 O   0  0  0  0  0  0  0  0  0  0  0  0
   -6.5202    4.1545    0.4063 C   0  0  0  0  0  0  0  0  0  0  0  0
    0.7663    2.9439    1.4223 N   0  0  0  0  0  0  0  0  0  0  0  0
    2.0925    2.8514    1.2764 C   0  0  0  0  0  0  0  0  0  0  0  0
    2.7570    1.8400    0.7129 N   0  0  0  0  0  0  0  0  0  0  0  0
    2.0242    0.8120    0.2511 C   0  0  0  0  0  0  0  0  0  0  0  0
    2.6771   -0.3143   -0.3210 N   0  0  0  0  0  0  0  0  0  0  0  0
    4.0300   -0.4527   -0.7056 C   0  0  0  0  0  0  0  0  0  0  0  0
    4.5839   -1.7413   -0.7802 C   0  0  0  0  0  0  0  0  0  0  0  0
    5.8977   -1.9408   -1.2130 C   0  0  0  0  0  0  0  0  0  0  0  0
    6.6730   -0.8522   -1.6037 C   0  0  0  0  0  0  0  0  0  0  0  0
    6.1296    0.4319   -1.5715 C   0  0  0  0  0  0  0  0  0  0  0  0
    4.8131    0.6253   -1.1372 C   0  0  0  0  0  0  0  0  0  0  0  0
    6.9164    1.5511   -1.9919 C   0  0  0  0  0  0  0  0  0  0  0  0
    7.5755    2.4904   -2.3434 C   0  0  0  0  0  0  0  0  0  0  0  0
   -1.3285   -5.7473    0.7271 H   0  0  0  0  0  0  0  0  0  0  0  0
   -0.9802   -5.2237   -0.9551 H   0  0  0  0  0  0  0  0  0  0  0  0
    0.2914   -5.1611    0.2839 H   0  0  0  0  0  0  0  0  0  0  0  0
   -3.1112   -4.1245    0.8823 H   0  0  0  0  0  0  0  0  0  0  0  0
   -2.7753   -3.6719   -0.8198 H   0  0  0  0  0  0  0  0  0  0  0  0
   -2.4415   -1.7470    1.5429 H   0  0  0  0  0  0  0  0  0  0  0  0
   -3.9449   -1.8661    0.5900 H   0  0  0  0  0  0  0  0  0  0  0  0
    0.1868   -1.0863   -0.6618 H   0  0  0  0  0  0  0  0  0  0  0  0
   -1.7496    2.8770    1.5694 H   0  0  0  0  0  0  0  0  0  0  0  0
   -3.8664    3.0164    0.4462 H   0  0  0  0  0  0  0  0  0  0  0  0
   -3.9207    2.4526    2.1385 H   0  0  0  0  0  0  0  0  0  0  0  0
   -5.9929    1.1874    1.6661 H   0  0  0  0  0  0  0  0  0  0  0  0
   -5.9952    1.7077   -0.0051 H   0  0  0  0  0  0  0  0  0  0  0  0
   -7.0351    3.7448   -0.4680 H   0  0  0  0  0  0  0  0  0  0  0  0
   -7.1120    4.9875    0.7966 H   0  0  0  0  0  0  0  0  0  0  0  0
   -5.5354    4.5345    0.1219 H   0  0  0  0  0  0  0  0  0  0  0  0
    2.6862    3.6747    1.6551 H   0  0  0  0  0  0  0  0  0  0  0  0
    2.3302   -1.1564    0.1278 H   0  0  0  0  0  0  0  0  0  0  0  0
    3.9947   -2.6092   -0.4955 H   0  0  0  0  0  0  0  0  0  0  0  0
    6.3119   -2.9443   -1.2494 H   0  0  0  0  0  0  0  0  0  0  0  0
    7.6941   -1.0105   -1.9415 H   0  0  0  0  0  0  0  0  0  0  0  0
    4.3994    1.6301   -1.1449 H   0  0  0  0  0  0  0  0  0  0  0  0
    8.1580    3.3262   -2.6537 H   0  0  0  0  0  0  0  0  0  0  0  0
  1  2  1  0
  2  3  1  0
  3  4  1  0
  4  5  1  0
  5  6  1  0
  6  7  2  0
  7  8  1  0
  8  9  2  0
  9 10  1  0
 10 11  2  0
 11 12  1  0
 12 13  1  0
 13 14  1  0
 14 15  1  0
 15 16  1  0
  9 17  1  0
 17 18  2  0
 18 19  1  0
 19 20  2  0
 20 21  1  0
 21 22  1  0
 22 23  2  0
 23 24  1  0
 24 25  2  0
 25 26  1  0
 26 27  2  0
 26 28  1  0
 28 29  3  0
 11  6  1  0
 20  8  1  0
 27 22  1  0
  1 30  1  0
  1 31  1  0
  1 32  1  0
  3 33  1  0
  3 34  1  0
  4 35  1  0
  4 36  1  0
  7 37  1  0
 10 38  1  0
 13 39  1  0
 13 40  1  0
 14 41  1  0
 14 42  1  0
 16 43  1  0
 16 44  1  0
 16 45  1  0
 18 46  1  0
 21 47  1  0
 23 48  1  0
 24 49  1  0
 25 50  1  0
 27 51  1  0
 29 52  1  0
M  END
>  <energy_abs>  (150) 
57.16398478845859

>  <SMILES>  (150) 
COCCOc1cc2c(cc1OCCOC)ncnc2Nc3cccc(c3)C#C

>  <cluster_no>  (150) 
150

>  <fda_drugs_id>  (150) 
AAKJLRGGTJKAMG-UHFFFAOYSA-N

>  <initial_conformation_id>  (150) 
150

>  <minimize_method>  (150) 
MMFF

$$$$

     RDKit          3D

 52 54  0  0  0  0  0  0  0  0999 V2000
   -3.8211   -5.4358   -0.0225 C   0  0  0  0  0  0  0  0  0  0  0  0
   -3.6753   -4.0385   -0.2514 O   0  0  0  0  0  0  0  0  0  0  0  0
   -2.8804   -3.4292    0.7684 C   0  0  0  0  0  0  0  0  0  0  0  0
   -2.5915   -1.9793    0.4073 C   0  0  0  0  0  0  0  0  0  0  0  0
   -1.6442   -1.4685    1.3602 O   0  0  0  0  0  0  0  0  0  0  0  0
   -1.1559   -0.2540    0.9490 C   0  0  0  0  0  0  0  0  0  0  0  0
    0.1295   -0.2364    0.4115 C   0  0  0  0  0  0  0  0  0  0  0  0
    0.7230    0.9835    0.0120 C   0  0  0  0  0  0  0  0  0  0  0  0
    0.0131    2.1786    0.1899 C   0  0  0  0  0  0  0  0  0  0  0  0
   -1.2640    2.1340    0.7447 C   0  0  0  0  0  0  0  0  0  0  0  0
   -1.8607    0.9350    1.1474 C   0  0  0  0  0  0  0  0  0  0  0  0
   -3.0992    0.8217    1.7189 O   0  0  0  0  0  0  0  0  0  0  0  0
   -3.7151    1.9928    2.2671 C   0  0  0  0  0  0  0  0  0  0  0  0
   -4.6450    2.6497    1.2465 C   0  0  0  0  0  0  0  0  0  0  0  0
   -5.8633    1.9023    1.1592 O   0  0  0  0  0  0  0  0  0  0  0  0
   -6.6966    2.3778    0.1114 C   0  0  0  0  0  0  0  0  0  0  0  0
    0.5154    3.3688   -0.1455 N   0  0  0  0  0  0  0  0  0  0  0  0
    1.7524    3.3784   -0.6549 C   0  0  0  0  0  0  0  0  0  0  0  0
    2.5236    2.3114   -0.8750 N   0  0  0  0  0  0  0  0  0  0  0  0
    2.0071    1.1120   -0.5553 C   0  0  0  0  0  0  0  0  0  0  0  0
    2.7617   -0.0646   -0.8141 N   0  0  0  0  0  0  0  0  0  0  0  0
    4.1337   -0.1709   -1.1346 C   0  0  0  0  0  0  0  0  0  0  0  0
    4.5762   -1.2839   -1.8659 C   0  0  0  0  0  0  0  0  0  0  0  0
    5.9306   -1.4685   -2.1516 C   0  0  0  0  0  0  0  0  0  0  0  0
    6.8690   -0.5502   -1.6882 C   0  0  0  0  0  0  0  0  0  0  0  0
    6.4528    0.5438   -0.9322 C   0  0  0  0  0  0  0  0  0  0  0  0
    5.0954    0.7235   -0.6481 C   0  0  0  0  0  0  0  0  0  0  0  0
    7.4186    1.4725   -0.4254 C   0  0  0  0  0  0  0  0  0  0  0  0
    8.2291    2.2484    0.0005 C   0  0  0  0  0  0  0  0  0  0  0  0
   -2.8401   -5.9272   -0.0471 H   0  0  0  0  0  0  0  0  0  0  0  0
   -4.4428   -5.8573   -0.8218 H   0  0  0  0  0  0  0  0  0  0  0  0
   -4.3110   -5.6200    0.9393 H   0  0  0  0  0  0  0  0  0  0  0  0
   -1.9364   -3.9740    0.8846 H   0  0  0  0  0  0  0  0  0  0  0  0
   -3.4093   -3.4732    1.7277 H   0  0  0  0  0  0  0  0  0  0  0  0
   -3.5249   -1.4004    0.4282 H   0  0  0  0  0  0  0  0  0  0  0  0
   -2.1863   -1.9348   -0.6122 H   0  0  0  0  0  0  0  0  0  0  0  0
    0.6715   -1.1749    0.3262 H   0  0  0  0  0  0  0  0  0  0  0  0
   -1.7796    3.0831    0.8535 H   0  0  0  0  0  0  0  0  0  0  0  0
   -4.3010    1.6550    3.1301 H   0  0  0  0  0  0  0  0  0  0  0  0
   -2.9699    2.6980    2.6533 H   0  0  0  0  0  0  0  0  0  0  0  0
   -4.1753    2.6915    0.2563 H   0  0  0  0  0  0  0  0  0  0  0  0
   -4.8913    3.6648    1.5801 H   0  0  0  0  0  0  0  0  0  0  0  0
   -6.2586    2.1256   -0.8585 H   0  0  0  0  0  0  0  0  0  0  0  0
   -7.6650    1.8823    0.1963 H   0  0  0  0  0  0  0  0  0  0  0  0
   -6.8497    3.4604    0.1867 H   0  0  0  0  0  0  0  0  0  0  0  0
    2.1688    4.3458   -0.9173 H   0  0  0  0  0  0  0  0  0  0  0  0
    2.1996   -0.6910   -1.3801 H   0  0  0  0  0  0  0  0  0  0  0  0
    3.8666   -2.0234   -2.2237 H   0  0  0  0  0  0  0  0  0  0  0  0
    6.2517   -2.3348   -2.7248 H   0  0  0  0  0  0  0  0  0  0  0  0
    7.9229   -0.6993   -1.9090 H   0  0  0  0  0  0  0  0  0  0  0  0
    4.7931    1.5638   -0.0290 H   0  0  0  0  0  0  0  0  0  0  0  0
    8.9495    2.9323    0.3871 H   0  0  0  0  0  0  0  0  0  0  0  0
  1  2  1  0
  2  3  1  0
  3  4  1  0
  4  5  1  0
  5  6  1  0
  6  7  2  0
  7  8  1  0
  8  9  2  0
  9 10  1  0
 10 11  2  0
 11 12  1  0
 12 13  1  0
 13 14  1  0
 14 15  1  0
 15 16  1  0
  9 17  1  0
 17 18  2  0
 18 19  1  0
 19 20  2  0
 20 21  1  0
 21 22  1  0
 22 23  2  0
 23 24  1  0
 24 25  2  0
 25 26  1  0
 26 27  2  0
 26 28  1  0
 28 29  3  0
 11  6  1  0
 20  8  1  0
 27 22  1  0
  1 30  1  0
  1 31  1  0
  1 32  1  0
  3 33  1  0
  3 34  1  0
  4 35  1  0
  4 36  1  0
  7 37  1  0
 10 38  1  0
 13 39  1  0
 13 40  1  0
 14 41  1  0
 14 42  1  0
 16 43  1  0
 16 44  1  0
 16 45  1  0
 18 46  1  0
 21 47  1  0
 23 48  1  0
 24 49  1  0
 25 50  1  0
 27 51  1  0
 29 52  1  0
M  END
>  <energy_abs>  (151) 
59.68426884904834

>  <SMILES>  (151) 
COCCOc1cc2c(cc1OCCOC)ncnc2Nc3cccc(c3)C#C

>  <cluster_no>  (151) 
151

>  <fda_drugs_id>  (151) 
AAKJLRGGTJKAMG-UHFFFAOYSA-N

>  <initial_conformation_id>  (151) 
149

>  <minimize_method>  (151) 
MMFF

$$$$

     RDKit          3D

 52 54  0  0  0  0  0  0  0  0999 V2000
   -2.6270   -5.7515    0.4489 C   0  0  0  0  0  0  0  0  0  0  0  0
   -2.9217   -4.4330    0.8722 O   0  0  0  0  0  0  0  0  0  0  0  0
   -1.7593   -3.7607    1.3651 C   0  0  0  0  0  0  0  0  0  0  0  0
   -2.0611   -2.2741    1.5532 C   0  0  0  0  0  0  0  0  0  0  0  0
   -2.0329   -1.6384    0.2666 O   0  0  0  0  0  0  0  0  0  0  0  0
   -1.4530   -0.3999    0.3351 C   0  0  0  0  0  0  0  0  0  0  0  0
   -0.1824   -0.2674   -0.2197 C   0  0  0  0  0  0  0  0  0  0  0  0
    0.4918    0.9736   -0.1704 C   0  0  0  0  0  0  0  0  0  0  0  0
   -0.1455    2.0725    0.4164 C   0  0  0  0  0  0  0  0  0  0  0  0
   -1.4309    1.9202    0.9308 C   0  0  0  0  0  0  0  0  0  0  0  0
   -2.1054    0.7002    0.8970 C   0  0  0  0  0  0  0  0  0  0  0  0
   -3.3586    0.4789    1.3986 O   0  0  0  0  0  0  0  0  0  0  0  0
   -4.2198    1.5947    1.6245 C   0  0  0  0  0  0  0  0  0  0  0  0
   -4.7922    2.1498    0.3182 C   0  0  0  0  0  0  0  0  0  0  0  0
   -5.7302    3.2056    0.5376 O   0  0  0  0  0  0  0  0  0  0  0  0
   -5.1128    4.4489    0.8372 C   0  0  0  0  0  0  0  0  0  0  0  0
    0.4384    3.2695    0.5214 N   0  0  0  0  0  0  0  0  0  0  0  0
    1.6864    3.3771    0.0526 C   0  0  0  0  0  0  0  0  0  0  0  0
    2.3967    2.4060   -0.5182 N   0  0  0  0  0  0  0  0  0  0  0  0
    1.8001    1.2045   -0.6391 C   0  0  0  0  0  0  0  0  0  0  0  0
    2.5053    0.1347   -1.2471 N   0  0  0  0  0  0  0  0  0  0  0  0
    3.8958    0.0071   -1.4652 C   0  0  0  0  0  0  0  0  0  0  0  0
    4.3529   -0.8855   -2.4467 C   0  0  0  0  0  0  0  0  0  0  0  0
    5.7192   -1.1042   -2.6479 C   0  0  0  0  0  0  0  0  0  0  0  0
    6.6518   -0.4484   -1.8545 C   0  0  0  0  0  0  0  0  0  0  0  0
    6.2177    0.4143   -0.8460 C   0  0  0  0  0  0  0  0  0  0  0  0
    4.8489    0.6277   -0.6480 C   0  0  0  0  0  0  0  0  0  0  0  0
    7.1719    1.0798   -0.0164 C   0  0  0  0  0  0  0  0  0  0  0  0
    7.9747    1.6525    0.6734 C   0  0  0  0  0  0  0  0  0  0  0  0
   -3.5625   -6.2449    0.1692 H   0  0  0  0  0  0  0  0  0  0  0  0
   -1.9766   -5.7195   -0.4245 H   0  0  0  0  0  0  0  0  0  0  0  0
   -2.1531   -6.3214    1.2484 H   0  0  0  0  0  0  0  0  0  0  0  0
   -1.4867   -4.2100    2.3293 H   0  0  0  0  0  0  0  0  0  0  0  0
   -0.9339   -3.8807    0.6557 H   0  0  0  0  0  0  0  0  0  0  0  0
   -3.0544   -2.1401    1.9871 H   0  0  0  0  0  0  0  0  0  0  0  0
   -1.3047   -1.8476    2.2248 H   0  0  0  0  0  0  0  0  0  0  0  0
    0.2897   -1.1439   -0.6551 H   0  0  0  0  0  0  0  0  0  0  0  0
   -1.8767    2.7965    1.3905 H   0  0  0  0  0  0  0  0  0  0  0  0
   -3.7432    2.3562    2.2495 H   0  0  0  0  0  0  0  0  0  0  0  0
   -5.0547    1.2283    2.2326 H   0  0  0  0  0  0  0  0  0  0  0  0
   -4.0061    2.4780   -0.3729 H   0  0  0  0  0  0  0  0  0  0  0  0
   -5.3269    1.3440   -0.1989 H   0  0  0  0  0  0  0  0  0  0  0  0
   -4.6017    4.4032    1.8016 H   0  0  0  0  0  0  0  0  0  0  0  0
   -4.4108    4.7335    0.0491 H   0  0  0  0  0  0  0  0  0  0  0  0
   -5.8953    5.2114    0.8990 H   0  0  0  0  0  0  0  0  0  0  0  0
    2.1699    4.3449    0.1502 H   0  0  0  0  0  0  0  0  0  0  0  0
    1.9664   -0.2075   -2.0355 H   0  0  0  0  0  0  0  0  0  0  0  0
    3.6462   -1.4232   -3.0686 H   0  0  0  0  0  0  0  0  0  0  0  0
    6.0535   -1.7902   -3.4224 H   0  0  0  0  0  0  0  0  0  0  0  0
    7.7138   -0.6197   -2.0143 H   0  0  0  0  0  0  0  0  0  0  0  0
    4.5307    1.2846    0.1569 H   0  0  0  0  0  0  0  0  0  0  0  0
    8.6826    2.1687    1.2781 H   0  0  0  0  0  0  0  0  0  0  0  0
  1  2  1  0
  2  3  1  0
  3  4  1  0
  4  5  1  0
  5  6  1  0
  6  7  2  0
  7  8  1  0
  8  9  2  0
  9 10  1  0
 10 11  2  0
 11 12  1  0
 12 13  1  0
 13 14  1  0
 14 15  1  0
 15 16  1  0
  9 17  1  0
 17 18  2  0
 18 19  1  0
 19 20  2  0
 20 21  1  0
 21 22  1  0
 22 23  2  0
 23 24  1  0
 24 25  2  0
 25 26  1  0
 26 27  2  0
 26 28  1  0
 28 29  3  0
 11  6  1  0
 20  8  1  0
 27 22  1  0
  1 30  1  0
  1 31  1  0
  1 32  1  0
  3 33  1  0
  3 34  1  0
  4 35  1  0
  4 36  1  0
  7 37  1  0
 10 38  1  0
 13 39  1  0
 13 40  1  0
 14 41  1  0
 14 42  1  0
 16 43  1  0
 16 44  1  0
 16 45  1  0
 18 46  1  0
 21 47  1  0
 23 48  1  0
 24 49  1  0
 25 50  1  0
 27 51  1  0
 29 52  1  0
M  END
>  <energy_abs>  (152) 
61.53428117990077

>  <SMILES>  (152) 
COCCOc1cc2c(cc1OCCOC)ncnc2Nc3cccc(c3)C#C

>  <cluster_no>  (152) 
152

>  <fda_drugs_id>  (152) 
AAKJLRGGTJKAMG-UHFFFAOYSA-N

>  <initial_conformation_id>  (152) 
148

>  <minimize_method>  (152) 
MMFF

$$$$

     RDKit          3D

 52 54  0  0  0  0  0  0  0  0999 V2000
   -2.9394   -4.6786    0.9934 C   0  0  0  0  0  0  0  0  0  0  0  0
   -2.4858   -3.6082    0.1795 O   0  0  0  0  0  0  0  0  0  0  0  0
   -1.1414   -3.2068    0.4546 C   0  0  0  0  0  0  0  0  0  0  0  0
   -1.0131   -2.3477    1.7213 C   0  0  0  0  0  0  0  0  0  0  0  0
   -1.7572   -1.1250    1.6459 O   0  0  0  0  0  0  0  0  0  0  0  0
   -1.3144   -0.1352    0.8163 C   0  0  0  0  0  0  0  0  0  0  0  0
    0.0131    0.0452    0.4291 C   0  0  0  0  0  0  0  0  0  0  0  0
    0.3885    1.0967   -0.4513 C   0  0  0  0  0  0  0  0  0  0  0  0
   -0.5941    1.9552   -0.9612 C   0  0  0  0  0  0  0  0  0  0  0  0
   -1.9069    1.7783   -0.5544 C   0  0  0  0  0  0  0  0  0  0  0  0
   -2.2646    0.7724    0.3455 C   0  0  0  0  0  0  0  0  0  0  0  0
   -3.5949    0.6934    0.6699 O   0  0  0  0  0  0  0  0  0  0  0  0
   -3.8197    1.0180    2.0504 C   0  0  0  0  0  0  0  0  0  0  0  0
   -5.1845    1.6911    2.1788 C   0  0  0  0  0  0  0  0  0  0  0  0
   -5.1244    3.0019    1.6005 O   0  0  0  0  0  0  0  0  0  0  0  0
   -6.3895    3.6438    1.6207 C   0  0  0  0  0  0  0  0  0  0  0  0
   -0.3163    2.9426   -1.8157 N   0  0  0  0  0  0  0  0  0  0  0  0
    0.9620    3.0835   -2.1777 C   0  0  0  0  0  0  0  0  0  0  0  0
    1.9882    2.3427   -1.7539 N   0  0  0  0  0  0  0  0  0  0  0  0
    1.7063    1.3572   -0.8846 C   0  0  0  0  0  0  0  0  0  0  0  0
    2.7654    0.5661   -0.3559 N   0  0  0  0  0  0  0  0  0  0  0  0
    4.1027    0.4667   -0.8064 C   0  0  0  0  0  0  0  0  0  0  0  0
    4.4738    0.6728   -2.1409 C   0  0  0  0  0  0  0  0  0  0  0  0
    5.7960    0.4961   -2.5593 C   0  0  0  0  0  0  0  0  0  0  0  0
    6.7654    0.0762   -1.6516 C   0  0  0  0  0  0  0  0  0  0  0  0
    6.4082   -0.1798   -0.3289 C   0  0  0  0  0  0  0  0  0  0  0  0
    5.0844    0.0041    0.0856 C   0  0  0  0  0  0  0  0  0  0  0  0
    7.3916   -0.6395    0.6023 C   0  0  0  0  0  0  0  0  0  0  0  0
    8.2195   -1.0287    1.3773 C   0  0  0  0  0  0  0  0  0  0  0  0
   -3.0024   -4.3768    2.0414 H   0  0  0  0  0  0  0  0  0  0  0  0
   -2.2838   -5.5478    0.8893 H   0  0  0  0  0  0  0  0  0  0  0  0
   -3.9413   -4.9603    0.6583 H   0  0  0  0  0  0  0  0  0  0  0  0
   -0.4989   -4.0928    0.5273 H   0  0  0  0  0  0  0  0  0  0  0  0
   -0.8103   -2.6370   -0.4198 H   0  0  0  0  0  0  0  0  0  0  0  0
   -1.4283   -2.8934    2.5743 H   0  0  0  0  0  0  0  0  0  0  0  0
    0.0348   -2.1603    1.9759 H   0  0  0  0  0  0  0  0  0  0  0  0
    0.7855   -0.6223    0.7879 H   0  0  0  0  0  0  0  0  0  0  0  0
   -2.6775    2.4459   -0.9335 H   0  0  0  0  0  0  0  0  0  0  0  0
   -3.8234    0.0920    2.6315 H   0  0  0  0  0  0  0  0  0  0  0  0
   -3.0443    1.6924    2.4349 H   0  0  0  0  0  0  0  0  0  0  0  0
   -5.9448    1.0996    1.6568 H   0  0  0  0  0  0  0  0  0  0  0  0
   -5.4543    1.7842    3.2366 H   0  0  0  0  0  0  0  0  0  0  0  0
   -7.1391    3.0387    1.0998 H   0  0  0  0  0  0  0  0  0  0  0  0
   -6.7087    3.8332    2.6499 H   0  0  0  0  0  0  0  0  0  0  0  0
   -6.2960    4.6034    1.1035 H   0  0  0  0  0  0  0  0  0  0  0  0
    1.1880    3.8788   -2.8789 H   0  0  0  0  0  0  0  0  0  0  0  0
    2.7309    0.6317    0.6566 H   0  0  0  0  0  0  0  0  0  0  0  0
    3.7356    0.9737   -2.8794 H   0  0  0  0  0  0  0  0  0  0  0  0
    6.0624    0.6817   -3.5969 H   0  0  0  0  0  0  0  0  0  0  0  0
    7.7907   -0.0607   -1.9853 H   0  0  0  0  0  0  0  0  0  0  0  0
    4.8217   -0.2172    1.1170 H   0  0  0  0  0  0  0  0  0  0  0  0
    8.9573   -1.3742    2.0618 H   0  0  0  0  0  0  0  0  0  0  0  0
  1  2  1  0
  2  3  1  0
  3  4  1  0
  4  5  1  0
  5  6  1  0
  6  7  2  0
  7  8  1  0
  8  9  2  0
  9 10  1  0
 10 11  2  0
 11 12  1  0
 12 13  1  0
 13 14  1  0
 14 15  1  0
 15 16  1  0
  9 17  1  0
 17 18  2  0
 18 19  1  0
 19 20  2  0
 20 21  1  0
 21 22  1  0
 22 23  2  0
 23 24  1  0
 24 25  2  0
 25 26  1  0
 26 27  2  0
 26 28  1  0
 28 29  3  0
 11  6  1  0
 20  8  1  0
 27 22  1  0
  1 30  1  0
  1 31  1  0
  1 32  1  0
  3 33  1  0
  3 34  1  0
  4 35  1  0
  4 36  1  0
  7 37  1  0
 10 38  1  0
 13 39  1  0
 13 40  1  0
 14 41  1  0
 14 42  1  0
 16 43  1  0
 16 44  1  0
 16 45  1  0
 18 46  1  0
 21 47  1  0
 23 48  1  0
 24 49  1  0
 25 50  1  0
 27 51  1  0
 29 52  1  0
M  END
>  <energy_abs>  (153) 
63.89005005628941

>  <SMILES>  (153) 
COCCOc1cc2c(cc1OCCOC)ncnc2Nc3cccc(c3)C#C

>  <cluster_no>  (153) 
153

>  <fda_drugs_id>  (153) 
AAKJLRGGTJKAMG-UHFFFAOYSA-N

>  <initial_conformation_id>  (153) 
147

>  <minimize_method>  (153) 
MMFF

$$$$

     RDKit          3D

 52 54  0  0  0  0  0  0  0  0999 V2000
   -2.6607   -5.2263    0.1824 C   0  0  0  0  0  0  0  0  0  0  0  0
   -1.4594   -4.4887    0.3675 O   0  0  0  0  0  0  0  0  0  0  0  0
   -1.6475   -3.2994    1.1380 C   0  0  0  0  0  0  0  0  0  0  0  0
   -2.2560   -2.1661    0.3138 C   0  0  0  0  0  0  0  0  0  0  0  0
   -2.2361   -0.9595    1.0824 O   0  0  0  0  0  0  0  0  0  0  0  0
   -1.5682    0.0707    0.4748 C   0  0  0  0  0  0  0  0  0  0  0  0
   -0.2216   -0.0484    0.1294 C   0  0  0  0  0  0  0  0  0  0  0  0
    0.4726    1.0392   -0.4521 C   0  0  0  0  0  0  0  0  0  0  0  0
   -0.1982    2.2546   -0.6415 C   0  0  0  0  0  0  0  0  0  0  0  0
   -1.5343    2.3576   -0.2675 C   0  0  0  0  0  0  0  0  0  0  0  0
   -2.2335    1.2855    0.2948 C   0  0  0  0  0  0  0  0  0  0  0  0
   -3.5513    1.3149    0.6682 O   0  0  0  0  0  0  0  0  0  0  0  0
   -4.1979    2.5885    0.7106 C   0  0  0  0  0  0  0  0  0  0  0  0
   -5.6302    2.4094    1.2269 C   0  0  0  0  0  0  0  0  0  0  0  0
   -5.7168    1.9051    2.5631 O   0  0  0  0  0  0  0  0  0  0  0  0
   -5.2619    2.8162    3.5522 C   0  0  0  0  0  0  0  0  0  0  0  0
    0.3945    3.3294   -1.1672 N   0  0  0  0  0  0  0  0  0  0  0  0
    1.6825    3.2019   -1.5047 C   0  0  0  0  0  0  0  0  0  0  0  0
    2.4252    2.1009   -1.3768 N   0  0  0  0  0  0  0  0  0  0  0  0
    1.8228    1.0162   -0.8591 C   0  0  0  0  0  0  0  0  0  0  0  0
    2.5535   -0.1982   -0.7364 N   0  0  0  0  0  0  0  0  0  0  0  0
    3.9497   -0.4006   -0.8375 C   0  0  0  0  0  0  0  0  0  0  0  0
    4.4252   -1.6833   -1.1579 C   0  0  0  0  0  0  0  0  0  0  0  0
    5.7948   -1.9558   -1.2101 C   0  0  0  0  0  0  0  0  0  0  0  0
    6.7134   -0.9517   -0.9167 C   0  0  0  0  0  0  0  0  0  0  0  0
    6.2613    0.3178   -0.5562 C   0  0  0  0  0  0  0  0  0  0  0  0
    4.8881    0.5840   -0.5031 C   0  0  0  0  0  0  0  0  0  0  0  0
    7.2045    1.3435   -0.2308 C   0  0  0  0  0  0  0  0  0  0  0  0
    8.0043    2.1973    0.0428 C   0  0  0  0  0  0  0  0  0  0  0  0
   -3.3754   -4.6624   -0.4239 H   0  0  0  0  0  0  0  0  0  0  0  0
   -3.1066   -5.4886    1.1475 H   0  0  0  0  0  0  0  0  0  0  0  0
   -2.4116   -6.1503   -0.3503 H   0  0  0  0  0  0  0  0  0  0  0  0
   -2.2463   -3.5047    2.0351 H   0  0  0  0  0  0  0  0  0  0  0  0
   -0.6589   -2.9920    1.4988 H   0  0  0  0  0  0  0  0  0  0  0  0
   -3.3061   -2.3910    0.0926 H   0  0  0  0  0  0  0  0  0  0  0  0
   -1.7547   -2.0819   -0.6603 H   0  0  0  0  0  0  0  0  0  0  0  0
    0.3005   -0.9774    0.3380 H   0  0  0  0  0  0  0  0  0  0  0  0
   -2.0170    3.3147   -0.4359 H   0  0  0  0  0  0  0  0  0  0  0  0
   -3.6389    3.2687    1.3620 H   0  0  0  0  0  0  0  0  0  0  0  0
   -4.2524    3.0066   -0.3019 H   0  0  0  0  0  0  0  0  0  0  0  0
   -6.1471    1.6794    0.5937 H   0  0  0  0  0  0  0  0  0  0  0  0
   -6.1824    3.3539    1.1607 H   0  0  0  0  0  0  0  0  0  0  0  0
   -4.1743    2.9213    3.5110 H   0  0  0  0  0  0  0  0  0  0  0  0
   -5.5258    2.4124    4.5342 H   0  0  0  0  0  0  0  0  0  0  0  0
   -5.7433    3.7925    3.4368 H   0  0  0  0  0  0  0  0  0  0  0  0
    2.1699    4.0751   -1.9249 H   0  0  0  0  0  0  0  0  0  0  0  0
    2.0450   -0.9306   -1.2195 H   0  0  0  0  0  0  0  0  0  0  0  0
    3.7294   -2.4893   -1.3750 H   0  0  0  0  0  0  0  0  0  0  0  0
    6.1419   -2.9512   -1.4733 H   0  0  0  0  0  0  0  0  0  0  0  0
    7.7786   -1.1668   -0.9577 H   0  0  0  0  0  0  0  0  0  0  0  0
    4.5558    1.5709   -0.1923 H   0  0  0  0  0  0  0  0  0  0  0  0
    8.7160    2.9529    0.2844 H   0  0  0  0  0  0  0  0  0  0  0  0
  1  2  1  0
  2  3  1  0
  3  4  1  0
  4  5  1  0
  5  6  1  0
  6  7  2  0
  7  8  1  0
  8  9  2  0
  9 10  1  0
 10 11  2  0
 11 12  1  0
 12 13  1  0
 13 14  1  0
 14 15  1  0
 15 16  1  0
  9 17  1  0
 17 18  2  0
 18 19  1  0
 19 20  2  0
 20 21  1  0
 21 22  1  0
 22 23  2  0
 23 24  1  0
 24 25  2  0
 25 26  1  0
 26 27  2  0
 26 28  1  0
 28 29  3  0
 11  6  1  0
 20  8  1  0
 27 22  1  0
  1 30  1  0
  1 31  1  0
  1 32  1  0
  3 33  1  0
  3 34  1  0
  4 35  1  0
  4 36  1  0
  7 37  1  0
 10 38  1  0
 13 39  1  0
 13 40  1  0
 14 41  1  0
 14 42  1  0
 16 43  1  0
 16 44  1  0
 16 45  1  0
 18 46  1  0
 21 47  1  0
 23 48  1  0
 24 49  1  0
 25 50  1  0
 27 51  1  0
 29 52  1  0
M  END
>  <energy_abs>  (154) 
62.545389609773245

>  <SMILES>  (154) 
COCCOc1cc2c(cc1OCCOC)ncnc2Nc3cccc(c3)C#C

>  <cluster_no>  (154) 
154

>  <fda_drugs_id>  (154) 
AAKJLRGGTJKAMG-UHFFFAOYSA-N

>  <initial_conformation_id>  (154) 
146

>  <minimize_method>  (154) 
MMFF

$$$$

     RDKit          3D

 52 54  0  0  0  0  0  0  0  0999 V2000
   -3.7733   -3.7651   -1.1786 C   0  0  0  0  0  0  0  0  0  0  0  0
   -3.0100   -4.1602   -0.0449 O   0  0  0  0  0  0  0  0  0  0  0  0
   -2.0744   -3.1689    0.3784 C   0  0  0  0  0  0  0  0  0  0  0  0
   -2.7370   -2.0239    1.1510 C   0  0  0  0  0  0  0  0  0  0  0  0
   -1.7487   -1.1604    1.7328 O   0  0  0  0  0  0  0  0  0  0  0  0
   -1.3179   -0.1887    0.8727 C   0  0  0  0  0  0  0  0  0  0  0  0
    0.0173   -0.2360    0.4816 C   0  0  0  0  0  0  0  0  0  0  0  0
    0.5483    0.7360   -0.4041 C   0  0  0  0  0  0  0  0  0  0  0  0
   -0.2788    1.7713   -0.8662 C   0  0  0  0  0  0  0  0  0  0  0  0
   -1.6002    1.8156   -0.4409 C   0  0  0  0  0  0  0  0  0  0  0  0
   -2.1157    0.8695    0.4457 C   0  0  0  0  0  0  0  0  0  0  0  0
   -3.4222    1.0213    0.8199 O   0  0  0  0  0  0  0  0  0  0  0  0
   -3.5664    1.2995    2.2235 C   0  0  0  0  0  0  0  0  0  0  0  0
   -4.0641    2.7376    2.4159 C   0  0  0  0  0  0  0  0  0  0  0  0
   -5.3241    3.0022    1.7930 O   0  0  0  0  0  0  0  0  0  0  0  0
   -6.4246    2.3934    2.4524 C   0  0  0  0  0  0  0  0  0  0  0  0
    0.1561    2.7270   -1.6908 N   0  0  0  0  0  0  0  0  0  0  0  0
    1.4405    2.6667   -2.0571 C   0  0  0  0  0  0  0  0  0  0  0  0
    2.3226    1.7344   -1.6889 N   0  0  0  0  0  0  0  0  0  0  0  0
    1.8785    0.7636   -0.8715 C   0  0  0  0  0  0  0  0  0  0  0  0
    2.7634   -0.2769   -0.4768 N   0  0  0  0  0  0  0  0  0  0  0  0
    4.1721   -0.3273   -0.5855 C   0  0  0  0  0  0  0  0  0  0  0  0
    4.8060   -1.5807   -0.5894 C   0  0  0  0  0  0  0  0  0  0  0  0
    6.1992   -1.6873   -0.6256 C   0  0  0  0  0  0  0  0  0  0  0  0
    6.9837   -0.5367   -0.6323 C   0  0  0  0  0  0  0  0  0  0  0  0
    6.3745    0.7172   -0.5906 C   0  0  0  0  0  0  0  0  0  0  0  0
    4.9786    0.8177   -0.5552 C   0  0  0  0  0  0  0  0  0  0  0  0
    7.1793    1.9007   -0.5755 C   0  0  0  0  0  0  0  0  0  0  0  0
    7.8558    2.8929   -0.5636 C   0  0  0  0  0  0  0  0  0  0  0  0
   -4.4383   -2.9327   -0.9321 H   0  0  0  0  0  0  0  0  0  0  0  0
   -4.3880   -4.6160   -1.4860 H   0  0  0  0  0  0  0  0  0  0  0  0
   -3.1191   -3.4908   -2.0119 H   0  0  0  0  0  0  0  0  0  0  0  0
   -1.3492   -3.6670    1.0340 H   0  0  0  0  0  0  0  0  0  0  0  0
   -1.4996   -2.7973   -0.4797 H   0  0  0  0  0  0  0  0  0  0  0  0
   -3.4592   -1.4840    0.5261 H   0  0  0  0  0  0  0  0  0  0  0  0
   -3.3222   -2.4452    1.9798 H   0  0  0  0  0  0  0  0  0  0  0  0
    0.6478   -1.0297    0.8755 H   0  0  0  0  0  0  0  0  0  0  0  0
   -2.2424    2.6209   -0.7918 H   0  0  0  0  0  0  0  0  0  0  0  0
   -4.2896    0.5767    2.6197 H   0  0  0  0  0  0  0  0  0  0  0  0
   -2.6289    1.1718    2.7834 H   0  0  0  0  0  0  0  0  0  0  0  0
   -3.3462    3.4264    1.9549 H   0  0  0  0  0  0  0  0  0  0  0  0
   -4.1220    2.9875    3.4816 H   0  0  0  0  0  0  0  0  0  0  0  0
   -6.4311    2.6473    3.5166 H   0  0  0  0  0  0  0  0  0  0  0  0
   -7.3448    2.7737    2.0001 H   0  0  0  0  0  0  0  0  0  0  0  0
   -6.4058    1.3076    2.3208 H   0  0  0  0  0  0  0  0  0  0  0  0
    1.8007    3.4497   -2.7166 H   0  0  0  0  0  0  0  0  0  0  0  0
    2.3433   -1.1698   -0.7122 H   0  0  0  0  0  0  0  0  0  0  0  0
    4.2174   -2.4946   -0.5681 H   0  0  0  0  0  0  0  0  0  0  0  0
    6.6700   -2.6667   -0.6420 H   0  0  0  0  0  0  0  0  0  0  0  0
    8.0675   -0.6227   -0.6584 H   0  0  0  0  0  0  0  0  0  0  0  0
    4.5244    1.8031   -0.4959 H   0  0  0  0  0  0  0  0  0  0  0  0
    8.4540    3.7739   -0.5549 H   0  0  0  0  0  0  0  0  0  0  0  0
  1  2  1  0
  2  3  1  0
  3  4  1  0
  4  5  1  0
  5  6  1  0
  6  7  2  0
  7  8  1  0
  8  9  2  0
  9 10  1  0
 10 11  2  0
 11 12  1  0
 12 13  1  0
 13 14  1  0
 14 15  1  0
 15 16  1  0
  9 17  1  0
 17 18  2  0
 18 19  1  0
 19 20  2  0
 20 21  1  0
 21 22  1  0
 22 23  2  0
 23 24  1  0
 24 25  2  0
 25 26  1  0
 26 27  2  0
 26 28  1  0
 28 29  3  0
 11  6  1  0
 20  8  1  0
 27 22  1  0
  1 30  1  0
  1 31  1  0
  1 32  1  0
  3 33  1  0
  3 34  1  0
  4 35  1  0
  4 36  1  0
  7 37  1  0
 10 38  1  0
 13 39  1  0
 13 40  1  0
 14 41  1  0
 14 42  1  0
 16 43  1  0
 16 44  1  0
 16 45  1  0
 18 46  1  0
 21 47  1  0
 23 48  1  0
 24 49  1  0
 25 50  1  0
 27 51  1  0
 29 52  1  0
M  END
>  <energy_abs>  (155) 
62.3367246954494

>  <SMILES>  (155) 
COCCOc1cc2c(cc1OCCOC)ncnc2Nc3cccc(c3)C#C

>  <cluster_no>  (155) 
155

>  <fda_drugs_id>  (155) 
AAKJLRGGTJKAMG-UHFFFAOYSA-N

>  <initial_conformation_id>  (155) 
145

>  <minimize_method>  (155) 
MMFF

$$$$

     RDKit          3D

 52 54  0  0  0  0  0  0  0  0999 V2000
   -3.3767   -5.3171    0.7856 C   0  0  0  0  0  0  0  0  0  0  0  0
   -2.5306   -4.2249    0.4538 O   0  0  0  0  0  0  0  0  0  0  0  0
   -1.6735   -3.8705    1.5443 C   0  0  0  0  0  0  0  0  0  0  0  0
   -0.8644   -2.6273    1.1730 C   0  0  0  0  0  0  0  0  0  0  0  0
   -1.7077   -1.4793    1.2995 O   0  0  0  0  0  0  0  0  0  0  0  0
   -1.1888   -0.2528    0.9752 C   0  0  0  0  0  0  0  0  0  0  0  0
    0.1224   -0.0321    0.5507 C   0  0  0  0  0  0  0  0  0  0  0  0
    0.5771    1.2723    0.2268 C   0  0  0  0  0  0  0  0  0  0  0  0
   -0.3113    2.3499    0.3168 C   0  0  0  0  0  0  0  0  0  0  0  0
   -1.6116    2.1178    0.7478 C   0  0  0  0  0  0  0  0  0  0  0  0
   -2.0659    0.8383    1.0834 C   0  0  0  0  0  0  0  0  0  0  0  0
   -3.3323    0.5441    1.5198 O   0  0  0  0  0  0  0  0  0  0  0  0
   -4.3119    1.5768    1.5949 C   0  0  0  0  0  0  0  0  0  0  0  0
   -4.9892    1.8058    0.2461 C   0  0  0  0  0  0  0  0  0  0  0  0
   -5.9598    2.8449    0.3774 O   0  0  0  0  0  0  0  0  0  0  0  0
   -6.6316    3.0880   -0.8519 C   0  0  0  0  0  0  0  0  0  0  0  0
    0.0373    3.6005    0.0042 N   0  0  0  0  0  0  0  0  0  0  0  0
    1.2926    3.7895   -0.4139 C   0  0  0  0  0  0  0  0  0  0  0  0
    2.2321    2.8496   -0.5349 N   0  0  0  0  0  0  0  0  0  0  0  0
    1.8813    1.5939   -0.2050 C   0  0  0  0  0  0  0  0  0  0  0  0
    2.8558    0.5595   -0.2660 N   0  0  0  0  0  0  0  0  0  0  0  0
    4.1162    0.5781   -0.9069 C   0  0  0  0  0  0  0  0  0  0  0  0
    4.3691    1.3372   -2.0560 C   0  0  0  0  0  0  0  0  0  0  0  0
    5.6060    1.2766   -2.7050 C   0  0  0  0  0  0  0  0  0  0  0  0
    6.6045    0.4312   -2.2269 C   0  0  0  0  0  0  0  0  0  0  0  0
    6.3602   -0.3617   -1.1069 C   0  0  0  0  0  0  0  0  0  0  0  0
    5.1203   -0.2967   -0.4609 C   0  0  0  0  0  0  0  0  0  0  0  0
    7.3741   -1.2473   -0.6214 C   0  0  0  0  0  0  0  0  0  0  0  0
    8.2254   -1.9900   -0.2142 C   0  0  0  0  0  0  0  0  0  0  0  0
   -4.0353   -5.0521    1.6184 H   0  0  0  0  0  0  0  0  0  0  0  0
   -2.7817   -6.1992    1.0412 H   0  0  0  0  0  0  0  0  0  0  0  0
   -3.9938   -5.5520   -0.0858 H   0  0  0  0  0  0  0  0  0  0  0  0
   -0.9923   -4.7074    1.7331 H   0  0  0  0  0  0  0  0  0  0  0  0
   -2.2788   -3.6782    2.4376 H   0  0  0  0  0  0  0  0  0  0  0  0
   -0.5059   -2.7174    0.1410 H   0  0  0  0  0  0  0  0  0  0  0  0
   -0.0238   -2.5324    1.8697 H   0  0  0  0  0  0  0  0  0  0  0  0
    0.8112   -0.8628    0.4412 H   0  0  0  0  0  0  0  0  0  0  0  0
   -2.2642    2.9831    0.8081 H   0  0  0  0  0  0  0  0  0  0  0  0
   -5.0741    1.2367    2.3069 H   0  0  0  0  0  0  0  0  0  0  0  0
   -3.9217    2.5012    2.0363 H   0  0  0  0  0  0  0  0  0  0  0  0
   -5.4731    0.8790   -0.0853 H   0  0  0  0  0  0  0  0  0  0  0  0
   -4.2526    2.0846   -0.5154 H   0  0  0  0  0  0  0  0  0  0  0  0
   -5.9211    3.4087   -1.6198 H   0  0  0  0  0  0  0  0  0  0  0  0
   -7.1642    2.1906   -1.1814 H   0  0  0  0  0  0  0  0  0  0  0  0
   -7.3597    3.8881   -0.6939 H   0  0  0  0  0  0  0  0  0  0  0  0
    1.5758    4.8030   -0.6765 H   0  0  0  0  0  0  0  0  0  0  0  0
    2.9138    0.1185    0.6462 H   0  0  0  0  0  0  0  0  0  0  0  0
    3.6000    1.9860   -2.4671 H   0  0  0  0  0  0  0  0  0  0  0  0
    5.7828    1.8854   -3.5877 H   0  0  0  0  0  0  0  0  0  0  0  0
    7.5634    0.3879   -2.7371 H   0  0  0  0  0  0  0  0  0  0  0  0
    4.9429   -0.9339    0.4016 H   0  0  0  0  0  0  0  0  0  0  0  0
    8.9825   -2.6473    0.1450 H   0  0  0  0  0  0  0  0  0  0  0  0
  1  2  1  0
  2  3  1  0
  3  4  1  0
  4  5  1  0
  5  6  1  0
  6  7  2  0
  7  8  1  0
  8  9  2  0
  9 10  1  0
 10 11  2  0
 11 12  1  0
 12 13  1  0
 13 14  1  0
 14 15  1  0
 15 16  1  0
  9 17  1  0
 17 18  2  0
 18 19  1  0
 19 20  2  0
 20 21  1  0
 21 22  1  0
 22 23  2  0
 23 24  1  0
 24 25  2  0
 25 26  1  0
 26 27  2  0
 26 28  1  0
 28 29  3  0
 11  6  1  0
 20  8  1  0
 27 22  1  0
  1 30  1  0
  1 31  1  0
  1 32  1  0
  3 33  1  0
  3 34  1  0
  4 35  1  0
  4 36  1  0
  7 37  1  0
 10 38  1  0
 13 39  1  0
 13 40  1  0
 14 41  1  0
 14 42  1  0
 16 43  1  0
 16 44  1  0
 16 45  1  0
 18 46  1  0
 21 47  1  0
 23 48  1  0
 24 49  1  0
 25 50  1  0
 27 51  1  0
 29 52  1  0
M  END
>  <energy_abs>  (156) 
59.311476326561845

>  <SMILES>  (156) 
COCCOc1cc2c(cc1OCCOC)ncnc2Nc3cccc(c3)C#C

>  <cluster_no>  (156) 
156

>  <fda_drugs_id>  (156) 
AAKJLRGGTJKAMG-UHFFFAOYSA-N

>  <initial_conformation_id>  (156) 
144

>  <minimize_method>  (156) 
MMFF

$$$$

     RDKit          3D

 52 54  0  0  0  0  0  0  0  0999 V2000
    0.4756   -4.1423    0.6661 C   0  0  0  0  0  0  0  0  0  0  0  0
   -0.9408   -4.2607    0.7053 O   0  0  0  0  0  0  0  0  0  0  0  0
   -1.6069   -3.0435    0.3664 C   0  0  0  0  0  0  0  0  0  0  0  0
   -1.7936   -2.1453    1.5904 C   0  0  0  0  0  0  0  0  0  0  0  0
   -2.4007   -0.9026    1.2435 O   0  0  0  0  0  0  0  0  0  0  0  0
   -1.6361    0.0991    0.7061 C   0  0  0  0  0  0  0  0  0  0  0  0
   -0.2441    0.0808    0.6186 C   0  0  0  0  0  0  0  0  0  0  0  0
    0.4688    1.1609    0.0383 C   0  0  0  0  0  0  0  0  0  0  0  0
   -0.2368    2.2569   -0.4697 C   0  0  0  0  0  0  0  0  0  0  0  0
   -1.6218    2.2700   -0.3664 C   0  0  0  0  0  0  0  0  0  0  0  0
   -2.3330    1.2152    0.2170 C   0  0  0  0  0  0  0  0  0  0  0  0
   -3.6989    1.1744    0.3433 O   0  0  0  0  0  0  0  0  0  0  0  0
   -4.4535    2.2889   -0.1368 C   0  0  0  0  0  0  0  0  0  0  0  0
   -5.9430    2.0277    0.1119 C   0  0  0  0  0  0  0  0  0  0  0  0
   -6.2952    2.0084    1.4988 O   0  0  0  0  0  0  0  0  0  0  0  0
   -6.3506    3.2967    2.0926 C   0  0  0  0  0  0  0  0  0  0  0  0
    0.3668    3.2954   -1.0538 N   0  0  0  0  0  0  0  0  0  0  0  0
    1.7000    3.2435   -1.1449 C   0  0  0  0  0  0  0  0  0  0  0  0
    2.4825    2.2611   -0.6932 N   0  0  0  0  0  0  0  0  0  0  0  0
    1.8712    1.2257   -0.0921 C   0  0  0  0  0  0  0  0  0  0  0  0
    2.6570    0.1749    0.4582 N   0  0  0  0  0  0  0  0  0  0  0  0
    4.0156   -0.1245    0.2042 C   0  0  0  0  0  0  0  0  0  0  0  0
    4.7455   -0.8400    1.1671 C   0  0  0  0  0  0  0  0  0  0  0  0
    6.0695   -1.2212    0.9338 C   0  0  0  0  0  0  0  0  0  0  0  0
    6.6775   -0.9145   -0.2813 C   0  0  0  0  0  0  0  0  0  0  0  0
    5.9569   -0.2378   -1.2650 C   0  0  0  0  0  0  0  0  0  0  0  0
    4.6313    0.1417   -1.0257 C   0  0  0  0  0  0  0  0  0  0  0  0
    6.5706    0.0585   -2.5235 C   0  0  0  0  0  0  0  0  0  0  0  0
    7.0849    0.3074   -3.5797 C   0  0  0  0  0  0  0  0  0  0  0  0
    0.9077   -5.1094    0.9371 H   0  0  0  0  0  0  0  0  0  0  0  0
    0.8098   -3.8836   -0.3433 H   0  0  0  0  0  0  0  0  0  0  0  0
    0.8262   -3.3934    1.3815 H   0  0  0  0  0  0  0  0  0  0  0  0
   -1.0870   -2.5313   -0.4514 H   0  0  0  0  0  0  0  0  0  0  0  0
   -2.5950   -3.3084   -0.0271 H   0  0  0  0  0  0  0  0  0  0  0  0
   -2.4809   -2.6511    2.2799 H   0  0  0  0  0  0  0  0  0  0  0  0
   -0.8783   -2.0099    2.1762 H   0  0  0  0  0  0  0  0  0  0  0  0
    0.3211   -0.7712    0.9779 H   0  0  0  0  0  0  0  0  0  0  0  0
   -2.1334    3.1399   -0.7659 H   0  0  0  0  0  0  0  0  0  0  0  0
   -4.1359    3.2009    0.3780 H   0  0  0  0  0  0  0  0  0  0  0  0
   -4.2983    2.3943   -1.2169 H   0  0  0  0  0  0  0  0  0  0  0  0
   -6.5575    2.7693   -0.4111 H   0  0  0  0  0  0  0  0  0  0  0  0
   -6.2042    1.0401   -0.2836 H   0  0  0  0  0  0  0  0  0  0  0  0
   -5.3567    3.7480    2.1442 H   0  0  0  0  0  0  0  0  0  0  0  0
   -6.7262    3.1854    3.1135 H   0  0  0  0  0  0  0  0  0  0  0  0
   -7.0349    3.9489    1.5417 H   0  0  0  0  0  0  0  0  0  0  0  0
    2.1929    4.0802   -1.6280 H   0  0  0  0  0  0  0  0  0  0  0  0
    2.4443    0.1039    1.4484 H   0  0  0  0  0  0  0  0  0  0  0  0
    4.2906   -1.1047    2.1183 H   0  0  0  0  0  0  0  0  0  0  0  0
    6.6236   -1.7613    1.6971 H   0  0  0  0  0  0  0  0  0  0  0  0
    7.7073   -1.2136   -0.4603 H   0  0  0  0  0  0  0  0  0  0  0  0
    4.0779    0.6456   -1.8139 H   0  0  0  0  0  0  0  0  0  0  0  0
    7.5390    0.5296   -4.5170 H   0  0  0  0  0  0  0  0  0  0  0  0
  1  2  1  0
  2  3  1  0
  3  4  1  0
  4  5  1  0
  5  6  1  0
  6  7  2  0
  7  8  1  0
  8  9  2  0
  9 10  1  0
 10 11  2  0
 11 12  1  0
 12 13  1  0
 13 14  1  0
 14 15  1  0
 15 16  1  0
  9 17  1  0
 17 18  2  0
 18 19  1  0
 19 20  2  0
 20 21  1  0
 21 22  1  0
 22 23  2  0
 23 24  1  0
 24 25  2  0
 25 26  1  0
 26 27  2  0
 26 28  1  0
 28 29  3  0
 11  6  1  0
 20  8  1  0
 27 22  1  0
  1 30  1  0
  1 31  1  0
  1 32  1  0
  3 33  1  0
  3 34  1  0
  4 35  1  0
  4 36  1  0
  7 37  1  0
 10 38  1  0
 13 39  1  0
 13 40  1  0
 14 41  1  0
 14 42  1  0
 16 43  1  0
 16 44  1  0
 16 45  1  0
 18 46  1  0
 21 47  1  0
 23 48  1  0
 24 49  1  0
 25 50  1  0
 27 51  1  0
 29 52  1  0
M  END
>  <energy_abs>  (157) 
63.26804314961883

>  <SMILES>  (157) 
COCCOc1cc2c(cc1OCCOC)ncnc2Nc3cccc(c3)C#C

>  <cluster_no>  (157) 
157

>  <fda_drugs_id>  (157) 
AAKJLRGGTJKAMG-UHFFFAOYSA-N

>  <initial_conformation_id>  (157) 
143

>  <minimize_method>  (157) 
MMFF

$$$$

     RDKit          3D

 52 54  0  0  0  0  0  0  0  0999 V2000
   -4.4195   -4.0689    1.7548 C   0  0  0  0  0  0  0  0  0  0  0  0
   -3.0138   -3.8993    1.9006 O   0  0  0  0  0  0  0  0  0  0  0  0
   -2.3497   -3.6273    0.6624 C   0  0  0  0  0  0  0  0  0  0  0  0
   -2.4242   -2.1511    0.2613 C   0  0  0  0  0  0  0  0  0  0  0  0
   -1.6369   -1.3813    1.1858 O   0  0  0  0  0  0  0  0  0  0  0  0
   -1.1554   -0.2323    0.6201 C   0  0  0  0  0  0  0  0  0  0  0  0
    0.2292   -0.1338    0.5079 C   0  0  0  0  0  0  0  0  0  0  0  0
    0.8285    1.0193   -0.0475 C   0  0  0  0  0  0  0  0  0  0  0  0
    0.0092    2.0630   -0.4959 C   0  0  0  0  0  0  0  0  0  0  0  0
   -1.3702    1.9553   -0.3462 C   0  0  0  0  0  0  0  0  0  0  0  0
   -1.9694    0.8328    0.2324 C   0  0  0  0  0  0  0  0  0  0  0  0
   -3.3152    0.6962    0.4398 O   0  0  0  0  0  0  0  0  0  0  0  0
   -4.0909    1.8960    0.4680 C   0  0  0  0  0  0  0  0  0  0  0  0
   -5.4420    1.5795    1.0985 C   0  0  0  0  0  0  0  0  0  0  0  0
   -6.2705    2.7403    1.0526 O   0  0  0  0  0  0  0  0  0  0  0  0
   -7.5366    2.5009    1.6588 C   0  0  0  0  0  0  0  0  0  0  0  0
    0.4993    3.1672   -1.0590 N   0  0  0  0  0  0  0  0  0  0  0  0
    1.8284    3.2405   -1.1847 C   0  0  0  0  0  0  0  0  0  0  0  0
    2.7101    2.3221   -0.7880 N   0  0  0  0  0  0  0  0  0  0  0  0
    2.2153    1.2161   -0.2075 C   0  0  0  0  0  0  0  0  0  0  0  0
    3.1069    0.2183    0.2720 N   0  0  0  0  0  0  0  0  0  0  0  0
    4.4899    0.0759    0.0197 C   0  0  0  0  0  0  0  0  0  0  0  0
    5.2759   -0.6324    0.9419 C   0  0  0  0  0  0  0  0  0  0  0  0
    6.6364   -0.8565    0.7132 C   0  0  0  0  0  0  0  0  0  0  0  0
    7.2283   -0.3950   -0.4600 C   0  0  0  0  0  0  0  0  0  0  0  0
    6.4556    0.2788   -1.4084 C   0  0  0  0  0  0  0  0  0  0  0  0
    5.0944    0.5014   -1.1715 C   0  0  0  0  0  0  0  0  0  0  0  0
    7.0532    0.7302   -2.6310 C   0  0  0  0  0  0  0  0  0  0  0  0
    7.5524    1.0986   -3.6610 C   0  0  0  0  0  0  0  0  0  0  0  0
   -4.6369   -4.9216    1.1010 H   0  0  0  0  0  0  0  0  0  0  0  0
   -4.8909   -3.1619    1.3621 H   0  0  0  0  0  0  0  0  0  0  0  0
   -4.8420   -4.2761    2.7412 H   0  0  0  0  0  0  0  0  0  0  0  0
   -2.7568   -4.2649   -0.1269 H   0  0  0  0  0  0  0  0  0  0  0  0
   -1.3057   -3.9036    0.8093 H   0  0  0  0  0  0  0  0  0  0  0  0
   -3.4587   -1.7965    0.2928 H   0  0  0  0  0  0  0  0  0  0  0  0
   -2.0342   -2.0487   -0.7599 H   0  0  0  0  0  0  0  0  0  0  0  0
    0.8356   -0.9726    0.8350 H   0  0  0  0  0  0  0  0  0  0  0  0
   -1.9737    2.7860   -0.7052 H   0  0  0  0  0  0  0  0  0  0  0  0
   -3.6012    2.6783    1.0637 H   0  0  0  0  0  0  0  0  0  0  0  0
   -4.2403    2.2724   -0.5517 H   0  0  0  0  0  0  0  0  0  0  0  0
   -5.9218    0.7526    0.5652 H   0  0  0  0  0  0  0  0  0  0  0  0
   -5.2943    1.2655    2.1371 H   0  0  0  0  0  0  0  0  0  0  0  0
   -8.1294    3.4154    1.5879 H   0  0  0  0  0  0  0  0  0  0  0  0
   -8.0686    1.7008    1.1355 H   0  0  0  0  0  0  0  0  0  0  0  0
   -7.4134    2.2444    2.7160 H   0  0  0  0  0  0  0  0  0  0  0  0
    2.2295    4.1317   -1.6502 H   0  0  0  0  0  0  0  0  0  0  0  0
    2.8831    0.0180    1.2417 H   0  0  0  0  0  0  0  0  0  0  0  0
    4.8358   -1.0152    1.8601 H   0  0  0  0  0  0  0  0  0  0  0  0
    7.2310   -1.3926    1.4492 H   0  0  0  0  0  0  0  0  0  0  0  0
    8.2865   -0.5721   -0.6361 H   0  0  0  0  0  0  0  0  0  0  0  0
    4.5050    1.0059   -1.9323 H   0  0  0  0  0  0  0  0  0  0  0  0
    7.9870    1.4110   -4.5809 H   0  0  0  0  0  0  0  0  0  0  0  0
  1  2  1  0
  2  3  1  0
  3  4  1  0
  4  5  1  0
  5  6  1  0
  6  7  2  0
  7  8  1  0
  8  9  2  0
  9 10  1  0
 10 11  2  0
 11 12  1  0
 12 13  1  0
 13 14  1  0
 14 15  1  0
 15 16  1  0
  9 17  1  0
 17 18  2  0
 18 19  1  0
 19 20  2  0
 20 21  1  0
 21 22  1  0
 22 23  2  0
 23 24  1  0
 24 25  2  0
 25 26  1  0
 26 27  2  0
 26 28  1  0
 28 29  3  0
 11  6  1  0
 20  8  1  0
 27 22  1  0
  1 30  1  0
  1 31  1  0
  1 32  1  0
  3 33  1  0
  3 34  1  0
  4 35  1  0
  4 36  1  0
  7 37  1  0
 10 38  1  0
 13 39  1  0
 13 40  1  0
 14 41  1  0
 14 42  1  0
 16 43  1  0
 16 44  1  0
 16 45  1  0
 18 46  1  0
 21 47  1  0
 23 48  1  0
 24 49  1  0
 25 50  1  0
 27 51  1  0
 29 52  1  0
M  END
>  <energy_abs>  (158) 
58.56119791753303

>  <SMILES>  (158) 
COCCOc1cc2c(cc1OCCOC)ncnc2Nc3cccc(c3)C#C

>  <cluster_no>  (158) 
158

>  <fda_drugs_id>  (158) 
AAKJLRGGTJKAMG-UHFFFAOYSA-N

>  <initial_conformation_id>  (158) 
142

>  <minimize_method>  (158) 
MMFF

$$$$

     RDKit          3D

 52 54  0  0  0  0  0  0  0  0999 V2000
   -4.1130   -5.3456    1.4269 C   0  0  0  0  0  0  0  0  0  0  0  0
   -4.0523   -3.9538    1.1464 O   0  0  0  0  0  0  0  0  0  0  0  0
   -2.7805   -3.4046    1.4898 C   0  0  0  0  0  0  0  0  0  0  0  0
   -2.7664   -1.9095    1.1810 C   0  0  0  0  0  0  0  0  0  0  0  0
   -1.4666   -1.4023    1.4872 O   0  0  0  0  0  0  0  0  0  0  0  0
   -1.1021   -0.2252    0.8926 C   0  0  0  0  0  0  0  0  0  0  0  0
    0.2777   -0.0978    0.7096 C   0  0  0  0  0  0  0  0  0  0  0  0
    0.8466    1.0616    0.1258 C   0  0  0  0  0  0  0  0  0  0  0  0
    0.0041    2.1043   -0.2738 C   0  0  0  0  0  0  0  0  0  0  0  0
   -1.3628    1.9772   -0.0644 C   0  0  0  0  0  0  0  0  0  0  0  0
   -1.9315    0.8259    0.4994 C   0  0  0  0  0  0  0  0  0  0  0  0
   -3.2708    0.7775    0.7736 O   0  0  0  0  0  0  0  0  0  0  0  0
   -4.1352    1.0966   -0.3300 C   0  0  0  0  0  0  0  0  0  0  0  0
   -4.9726    2.3310    0.0024 C   0  0  0  0  0  0  0  0  0  0  0  0
   -5.9515    1.9939    0.9901 O   0  0  0  0  0  0  0  0  0  0  0  0
   -6.7204    3.1254    1.3764 C   0  0  0  0  0  0  0  0  0  0  0  0
    0.4586    3.2241   -0.8418 N   0  0  0  0  0  0  0  0  0  0  0  0
    1.7801    3.3081   -1.0274 C   0  0  0  0  0  0  0  0  0  0  0  0
    2.6842    2.3869   -0.6872 N   0  0  0  0  0  0  0  0  0  0  0  0
    2.2229    1.2683   -0.1002 C   0  0  0  0  0  0  0  0  0  0  0  0
    3.1430    0.2700    0.3222 N   0  0  0  0  0  0  0  0  0  0  0  0
    4.5093    0.1337   -0.0141 C   0  0  0  0  0  0  0  0  0  0  0  0
    5.3544   -0.5767    0.8542 C   0  0  0  0  0  0  0  0  0  0  0  0
    6.6978   -0.7961    0.5375 C   0  0  0  0  0  0  0  0  0  0  0  0
    7.2127   -0.3283   -0.6691 C   0  0  0  0  0  0  0  0  0  0  0  0
    6.3806    0.3471   -1.5617 C   0  0  0  0  0  0  0  0  0  0  0  0
    5.0361    0.5640   -1.2389 C   0  0  0  0  0  0  0  0  0  0  0  0
    6.9001    0.8070   -2.8133 C   0  0  0  0  0  0  0  0  0  0  0  0
    7.3361    1.1918   -3.8638 C   0  0  0  0  0  0  0  0  0  0  0  0
   -3.3591   -5.8867    0.8467 H   0  0  0  0  0  0  0  0  0  0  0  0
   -3.9684   -5.5272    2.4962 H   0  0  0  0  0  0  0  0  0  0  0  0
   -5.1028   -5.7118    1.1410 H   0  0  0  0  0  0  0  0  0  0  0  0
   -1.9905   -3.9084    0.9195 H   0  0  0  0  0  0  0  0  0  0  0  0
   -2.5760   -3.5652    2.5555 H   0  0  0  0  0  0  0  0  0  0  0  0
   -3.5221   -1.4156    1.8019 H   0  0  0  0  0  0  0  0  0  0  0  0
   -3.0173   -1.7659    0.1225 H   0  0  0  0  0  0  0  0  0  0  0  0
    0.9142   -0.9274    1.0105 H   0  0  0  0  0  0  0  0  0  0  0  0
   -1.9927    2.8209   -0.3322 H   0  0  0  0  0  0  0  0  0  0  0  0
   -3.5841    1.2447   -1.2664 H   0  0  0  0  0  0  0  0  0  0  0  0
   -4.7924    0.2311   -0.4703 H   0  0  0  0  0  0  0  0  0  0  0  0
   -5.4901    2.6750   -0.8999 H   0  0  0  0  0  0  0  0  0  0  0  0
   -4.3348    3.1334    0.3883 H   0  0  0  0  0  0  0  0  0  0  0  0
   -7.4489    2.8070    2.1270 H   0  0  0  0  0  0  0  0  0  0  0  0
   -6.0775    3.8933    1.8180 H   0  0  0  0  0  0  0  0  0  0  0  0
   -7.2597    3.5338    0.5157 H   0  0  0  0  0  0  0  0  0  0  0  0
    2.1544    4.2117   -1.4963 H   0  0  0  0  0  0  0  0  0  0  0  0
    2.9818    0.0746    1.3047 H   0  0  0  0  0  0  0  0  0  0  0  0
    4.9742   -0.9652    1.7954 H   0  0  0  0  0  0  0  0  0  0  0  0
    7.3390   -1.3364    1.2290 H   0  0  0  0  0  0  0  0  0  0  0  0
    8.2576   -0.5021   -0.9135 H   0  0  0  0  0  0  0  0  0  0  0  0
    4.3971    1.0685   -1.9589 H   0  0  0  0  0  0  0  0  0  0  0  0
    7.7216    1.5339   -4.7956 H   0  0  0  0  0  0  0  0  0  0  0  0
  1  2  1  0
  2  3  1  0
  3  4  1  0
  4  5  1  0
  5  6  1  0
  6  7  2  0
  7  8  1  0
  8  9  2  0
  9 10  1  0
 10 11  2  0
 11 12  1  0
 12 13  1  0
 13 14  1  0
 14 15  1  0
 15 16  1  0
  9 17  1  0
 17 18  2  0
 18 19  1  0
 19 20  2  0
 20 21  1  0
 21 22  1  0
 22 23  2  0
 23 24  1  0
 24 25  2  0
 25 26  1  0
 26 27  2  0
 26 28  1  0
 28 29  3  0
 11  6  1  0
 20  8  1  0
 27 22  1  0
  1 30  1  0
  1 31  1  0
  1 32  1  0
  3 33  1  0
  3 34  1  0
  4 35  1  0
  4 36  1  0
  7 37  1  0
 10 38  1  0
 13 39  1  0
 13 40  1  0
 14 41  1  0
 14 42  1  0
 16 43  1  0
 16 44  1  0
 16 45  1  0
 18 46  1  0
 21 47  1  0
 23 48  1  0
 24 49  1  0
 25 50  1  0
 27 51  1  0
 29 52  1  0
M  END
>  <energy_abs>  (159) 
58.9144987669849

>  <SMILES>  (159) 
COCCOc1cc2c(cc1OCCOC)ncnc2Nc3cccc(c3)C#C

>  <cluster_no>  (159) 
159

>  <fda_drugs_id>  (159) 
AAKJLRGGTJKAMG-UHFFFAOYSA-N

>  <initial_conformation_id>  (159) 
141

>  <minimize_method>  (159) 
MMFF

$$$$

     RDKit          3D

 52 54  0  0  0  0  0  0  0  0999 V2000
   -3.9908   -4.4693    2.3679 C   0  0  0  0  0  0  0  0  0  0  0  0
   -2.9751   -4.6690    1.3939 O   0  0  0  0  0  0  0  0  0  0  0  0
   -2.8898   -3.6021    0.4487 C   0  0  0  0  0  0  0  0  0  0  0  0
   -2.1253   -2.3970    0.9937 C   0  0  0  0  0  0  0  0  0  0  0  0
   -2.0257   -1.4171   -0.0480 O   0  0  0  0  0  0  0  0  0  0  0  0
   -1.4584   -0.2666    0.4298 C   0  0  0  0  0  0  0  0  0  0  0  0
   -0.1231   -0.0214    0.1281 C   0  0  0  0  0  0  0  0  0  0  0  0
    0.5042    1.1708    0.5668 C   0  0  0  0  0  0  0  0  0  0  0  0
   -0.2307    2.0956    1.3253 C   0  0  0  0  0  0  0  0  0  0  0  0
   -1.5688    1.8368    1.5951 C   0  0  0  0  0  0  0  0  0  0  0  0
   -2.2014    0.6867    1.1210 C   0  0  0  0  0  0  0  0  0  0  0  0
   -3.5240    0.4336    1.3687 O   0  0  0  0  0  0  0  0  0  0  0  0
   -4.4168    1.4400    0.8613 C   0  0  0  0  0  0  0  0  0  0  0  0
   -4.5642    1.3823   -0.6658 C   0  0  0  0  0  0  0  0  0  0  0  0
   -3.4610    1.9687   -1.3643 O   0  0  0  0  0  0  0  0  0  0  0  0
   -3.5028    3.3880   -1.4024 C   0  0  0  0  0  0  0  0  0  0  0  0
    0.3016    3.2240    1.8005 N   0  0  0  0  0  0  0  0  0  0  0  0
    1.5905    3.4428    1.5206 C   0  0  0  0  0  0  0  0  0  0  0  0
    2.3891    2.6494    0.8028 N   0  0  0  0  0  0  0  0  0  0  0  0
    1.8466    1.5194    0.3144 C   0  0  0  0  0  0  0  0  0  0  0  0
    2.6380    0.6530   -0.4886 N   0  0  0  0  0  0  0  0  0  0  0  0
    4.0387    0.6578   -0.6785 C   0  0  0  0  0  0  0  0  0  0  0  0
    4.9354    1.1004    0.3015 C   0  0  0  0  0  0  0  0  0  0  0  0
    6.3176    1.0266    0.1040 C   0  0  0  0  0  0  0  0  0  0  0  0
    6.8265    0.4823   -1.0727 C   0  0  0  0  0  0  0  0  0  0  0  0
    5.9520    0.0011   -2.0455 C   0  0  0  0  0  0  0  0  0  0  0  0
    4.5693    0.0778   -1.8424 C   0  0  0  0  0  0  0  0  0  0  0  0
    6.4673   -0.5774   -3.2487 C   0  0  0  0  0  0  0  0  0  0  0  0
    6.9000   -1.0629   -4.2582 C   0  0  0  0  0  0  0  0  0  0  0  0
   -4.0271   -5.3544    3.0090 H   0  0  0  0  0  0  0  0  0  0  0  0
   -3.7681   -3.6018    2.9946 H   0  0  0  0  0  0  0  0  0  0  0  0
   -4.9670   -4.3490    1.8884 H   0  0  0  0  0  0  0  0  0  0  0  0
   -3.8873   -3.3124    0.0961 H   0  0  0  0  0  0  0  0  0  0  0  0
   -2.3606   -3.9889   -0.4298 H   0  0  0  0  0  0  0  0  0  0  0  0
   -2.6426   -1.9943    1.8718 H   0  0  0  0  0  0  0  0  0  0  0  0
   -1.1231   -2.7127    1.3113 H   0  0  0  0  0  0  0  0  0  0  0  0
    0.4288   -0.7679   -0.4365 H   0  0  0  0  0  0  0  0  0  0  0  0
   -2.1211    2.5547    2.1944 H   0  0  0  0  0  0  0  0  0  0  0  0
   -5.3927    1.2063    1.3018 H   0  0  0  0  0  0  0  0  0  0  0  0
   -4.1439    2.4359    1.2225 H   0  0  0  0  0  0  0  0  0  0  0  0
   -5.4922    1.8739   -0.9790 H   0  0  0  0  0  0  0  0  0  0  0  0
   -4.6162    0.3361   -0.9858 H   0  0  0  0  0  0  0  0  0  0  0  0
   -4.4185    3.7320   -1.8926 H   0  0  0  0  0  0  0  0  0  0  0  0
   -2.6459    3.7387   -1.9842 H   0  0  0  0  0  0  0  0  0  0  0  0
   -3.4311    3.8128   -0.3980 H   0  0  0  0  0  0  0  0  0  0  0  0
    2.0297    4.3541    1.9114 H   0  0  0  0  0  0  0  0  0  0  0  0
    2.1463    0.4777   -1.3594 H   0  0  0  0  0  0  0  0  0  0  0  0
    4.5681    1.5048    1.2410 H   0  0  0  0  0  0  0  0  0  0  0  0
    6.9930    1.3882    0.8748 H   0  0  0  0  0  0  0  0  0  0  0  0
    7.9020    0.4264   -1.2194 H   0  0  0  0  0  0  0  0  0  0  0  0
    3.9028   -0.3169   -2.6053 H   0  0  0  0  0  0  0  0  0  0  0  0
    7.2849   -1.4934   -5.1531 H   0  0  0  0  0  0  0  0  0  0  0  0
  1  2  1  0
  2  3  1  0
  3  4  1  0
  4  5  1  0
  5  6  1  0
  6  7  2  0
  7  8  1  0
  8  9  2  0
  9 10  1  0
 10 11  2  0
 11 12  1  0
 12 13  1  0
 13 14  1  0
 14 15  1  0
 15 16  1  0
  9 17  1  0
 17 18  2  0
 18 19  1  0
 19 20  2  0
 20 21  1  0
 21 22  1  0
 22 23  2  0
 23 24  1  0
 24 25  2  0
 25 26  1  0
 26 27  2  0
 26 28  1  0
 28 29  3  0
 11  6  1  0
 20  8  1  0
 27 22  1  0
  1 30  1  0
  1 31  1  0
  1 32  1  0
  3 33  1  0
  3 34  1  0
  4 35  1  0
  4 36  1  0
  7 37  1  0
 10 38  1  0
 13 39  1  0
 13 40  1  0
 14 41  1  0
 14 42  1  0
 16 43  1  0
 16 44  1  0
 16 45  1  0
 18 46  1  0
 21 47  1  0
 23 48  1  0
 24 49  1  0
 25 50  1  0
 27 51  1  0
 29 52  1  0
M  END
>  <energy_abs>  (160) 
61.45830766703652

>  <SMILES>  (160) 
COCCOc1cc2c(cc1OCCOC)ncnc2Nc3cccc(c3)C#C

>  <cluster_no>  (160) 
160

>  <fda_drugs_id>  (160) 
AAKJLRGGTJKAMG-UHFFFAOYSA-N

>  <initial_conformation_id>  (160) 
140

>  <minimize_method>  (160) 
MMFF

$$$$

     RDKit          3D

 52 54  0  0  0  0  0  0  0  0999 V2000
    0.6030   -4.0276   -1.0659 C   0  0  0  0  0  0  0  0  0  0  0  0
   -0.7892   -4.2482   -0.8782 O   0  0  0  0  0  0  0  0  0  0  0  0
   -1.5232   -3.0357   -0.7039 C   0  0  0  0  0  0  0  0  0  0  0  0
   -1.5408   -2.5958    0.7610 C   0  0  0  0  0  0  0  0  0  0  0  0
   -2.2345   -1.3613    0.9320 O   0  0  0  0  0  0  0  0  0  0  0  0
   -1.5925   -0.1808    0.6624 C   0  0  0  0  0  0  0  0  0  0  0  0
   -0.2345   -0.0603    0.3679 C   0  0  0  0  0  0  0  0  0  0  0  0
    0.3480    1.2042    0.0974 C   0  0  0  0  0  0  0  0  0  0  0  0
   -0.4557    2.3488    0.1143 C   0  0  0  0  0  0  0  0  0  0  0  0
   -1.8050    2.2184    0.4197 C   0  0  0  0  0  0  0  0  0  0  0  0
   -2.3883    0.9760    0.6918 C   0  0  0  0  0  0  0  0  0  0  0  0
   -3.7102    0.7822    1.0018 O   0  0  0  0  0  0  0  0  0  0  0  0
   -4.6271    1.8669    0.8745 C   0  0  0  0  0  0  0  0  0  0  0  0
   -4.7482    2.6435    2.1859 C   0  0  0  0  0  0  0  0  0  0  0  0
   -5.6024    3.7808    2.0605 O   0  0  0  0  0  0  0  0  0  0  0  0
   -6.9831    3.4520    2.1402 C   0  0  0  0  0  0  0  0  0  0  0  0
    0.0216    3.5672   -0.1520 N   0  0  0  0  0  0  0  0  0  0  0  0
    1.3214    3.6537   -0.4533 C   0  0  0  0  0  0  0  0  0  0  0  0
    2.1885    2.6397   -0.4983 N   0  0  0  0  0  0  0  0  0  0  0  0
    1.7074    1.4178   -0.2113 C   0  0  0  0  0  0  0  0  0  0  0  0
    2.5944    0.3055   -0.1862 N   0  0  0  0  0  0  0  0  0  0  0  0
    3.8953    0.2089   -0.7320 C   0  0  0  0  0  0  0  0  0  0  0  0
    4.2965    0.9316   -1.8620 C   0  0  0  0  0  0  0  0  0  0  0  0
    5.5654    0.7529   -2.4212 C   0  0  0  0  0  0  0  0  0  0  0  0
    6.4459   -0.1763   -1.8720 C   0  0  0  0  0  0  0  0  0  0  0  0
    6.0518   -0.9339   -0.7705 C   0  0  0  0  0  0  0  0  0  0  0  0
    4.7809   -0.7501   -0.2140 C   0  0  0  0  0  0  0  0  0  0  0  0
    6.9427   -1.9054   -0.2133 C   0  0  0  0  0  0  0  0  0  0  0  0
    7.6906   -2.7205    0.2540 C   0  0  0  0  0  0  0  0  0  0  0  0
    1.0902   -4.9989   -1.1878 H   0  0  0  0  0  0  0  0  0  0  0  0
    0.7778   -3.4359   -1.9698 H   0  0  0  0  0  0  0  0  0  0  0  0
    1.0409   -3.5265   -0.1984 H   0  0  0  0  0  0  0  0  0  0  0  0
   -1.1443   -2.2524   -1.3703 H   0  0  0  0  0  0  0  0  0  0  0  0
   -2.5539   -3.2273   -1.0238 H   0  0  0  0  0  0  0  0  0  0  0  0
   -2.0936   -3.3503    1.3345 H   0  0  0  0  0  0  0  0  0  0  0  0
   -0.5487   -2.5812    1.2243 H   0  0  0  0  0  0  0  0  0  0  0  0
    0.4016   -0.9365    0.3217 H   0  0  0  0  0  0  0  0  0  0  0  0
   -2.3889    3.1338    0.4415 H   0  0  0  0  0  0  0  0  0  0  0  0
   -5.5985    1.4183    0.6376 H   0  0  0  0  0  0  0  0  0  0  0  0
   -4.4087    2.5168    0.0190 H   0  0  0  0  0  0  0  0  0  0  0  0
   -3.7635    3.0161    2.4866 H   0  0  0  0  0  0  0  0  0  0  0  0
   -5.0818    1.9907    3.0020 H   0  0  0  0  0  0  0  0  0  0  0  0
   -7.5585    4.3803    2.0870 H   0  0  0  0  0  0  0  0  0  0  0  0
   -7.2825    2.8145    1.3044 H   0  0  0  0  0  0  0  0  0  0  0  0
   -7.2073    2.9595    3.0912 H   0  0  0  0  0  0  0  0  0  0  0  0
    1.7087    4.6413   -0.6792 H   0  0  0  0  0  0  0  0  0  0  0  0
    2.5529   -0.1135    0.7378 H   0  0  0  0  0  0  0  0  0  0  0  0
    3.6215    1.6451   -2.3277 H   0  0  0  0  0  0  0  0  0  0  0  0
    5.8596    1.3359   -3.2901 H   0  0  0  0  0  0  0  0  0  0  0  0
    7.4304   -0.3112   -2.3128 H   0  0  0  0  0  0  0  0  0  0  0  0
    4.4860   -1.3608    0.6356 H   0  0  0  0  0  0  0  0  0  0  0  0
    8.3564   -3.4421    0.6669 H   0  0  0  0  0  0  0  0  0  0  0  0
  1  2  1  0
  2  3  1  0
  3  4  1  0
  4  5  1  0
  5  6  1  0
  6  7  2  0
  7  8  1  0
  8  9  2  0
  9 10  1  0
 10 11  2  0
 11 12  1  0
 12 13  1  0
 13 14  1  0
 14 15  1  0
 15 16  1  0
  9 17  1  0
 17 18  2  0
 18 19  1  0
 19 20  2  0
 20 21  1  0
 21 22  1  0
 22 23  2  0
 23 24  1  0
 24 25  2  0
 25 26  1  0
 26 27  2  0
 26 28  1  0
 28 29  3  0
 11  6  1  0
 20  8  1  0
 27 22  1  0
  1 30  1  0
  1 31  1  0
  1 32  1  0
  3 33  1  0
  3 34  1  0
  4 35  1  0
  4 36  1  0
  7 37  1  0
 10 38  1  0
 13 39  1  0
 13 40  1  0
 14 41  1  0
 14 42  1  0
 16 43  1  0
 16 44  1  0
 16 45  1  0
 18 46  1  0
 21 47  1  0
 23 48  1  0
 24 49  1  0
 25 50  1  0
 27 51  1  0
 29 52  1  0
M  END
>  <energy_abs>  (161) 
62.34817764836741

>  <SMILES>  (161) 
COCCOc1cc2c(cc1OCCOC)ncnc2Nc3cccc(c3)C#C

>  <cluster_no>  (161) 
161

>  <fda_drugs_id>  (161) 
AAKJLRGGTJKAMG-UHFFFAOYSA-N

>  <initial_conformation_id>  (161) 
139

>  <minimize_method>  (161) 
MMFF

$$$$

     RDKit          3D

 52 54  0  0  0  0  0  0  0  0999 V2000
   -0.0286   -4.1003    1.7952 C   0  0  0  0  0  0  0  0  0  0  0  0
   -1.3694   -4.1741    1.3170 O   0  0  0  0  0  0  0  0  0  0  0  0
   -1.6641   -3.1722    0.3297 C   0  0  0  0  0  0  0  0  0  0  0  0
   -2.0673   -1.8320    0.9561 C   0  0  0  0  0  0  0  0  0  0  0  0
   -2.2463   -0.8686   -0.1007 O   0  0  0  0  0  0  0  0  0  0  0  0
   -1.5312    0.2719    0.1620 C   0  0  0  0  0  0  0  0  0  0  0  0
   -0.1801    0.3076   -0.1774 C   0  0  0  0  0  0  0  0  0  0  0  0
    0.5884    1.4674    0.0691 C   0  0  0  0  0  0  0  0  0  0  0  0
   -0.0288    2.5851    0.6450 C   0  0  0  0  0  0  0  0  0  0  0  0
   -1.3870    2.5310    0.9485 C   0  0  0  0  0  0  0  0  0  0  0  0
   -2.1569    1.3892    0.7124 C   0  0  0  0  0  0  0  0  0  0  0  0
   -3.4865    1.2570    1.0100 O   0  0  0  0  0  0  0  0  0  0  0  0
   -4.1976    2.4484    1.3716 C   0  0  0  0  0  0  0  0  0  0  0  0
   -5.6832    2.1110    1.5113 C   0  0  0  0  0  0  0  0  0  0  0  0
   -6.2666    1.9723    0.2134 O   0  0  0  0  0  0  0  0  0  0  0  0
   -7.6375    1.6018    0.2866 C   0  0  0  0  0  0  0  0  0  0  0  0
    0.6394    3.7043    0.9296 N   0  0  0  0  0  0  0  0  0  0  0  0
    1.9463    3.7158    0.6457 C   0  0  0  0  0  0  0  0  0  0  0  0
    2.6435    2.7176    0.1014 N   0  0  0  0  0  0  0  0  0  0  0  0
    1.9676    1.5941   -0.1920 C   0  0  0  0  0  0  0  0  0  0  0  0
    2.6564    0.4980   -0.7792 N   0  0  0  0  0  0  0  0  0  0  0  0
    4.0454    0.2444   -0.8169 C   0  0  0  0  0  0  0  0  0  0  0  0
    4.9278    0.7266    0.1591 C   0  0  0  0  0  0  0  0  0  0  0  0
    6.2842    0.3879    0.1377 C   0  0  0  0  0  0  0  0  0  0  0  0
    6.7760   -0.4667   -0.8497 C   0  0  0  0  0  0  0  0  0  0  0  0
    5.9079   -0.9875   -1.8102 C   0  0  0  0  0  0  0  0  0  0  0  0
    4.5509   -0.6437   -1.7845 C   0  0  0  0  0  0  0  0  0  0  0  0
    6.4015   -1.8865   -2.8124 C   0  0  0  0  0  0  0  0  0  0  0  0
    6.8144   -2.6453   -3.6489 C   0  0  0  0  0  0  0  0  0  0  0  0
    0.1452   -4.9516    2.4653 H   0  0  0  0  0  0  0  0  0  0  0  0
    0.6810   -4.1681    0.9644 H   0  0  0  0  0  0  0  0  0  0  0  0
    0.1365   -3.1737    2.3564 H   0  0  0  0  0  0  0  0  0  0  0  0
   -0.8199   -3.0476   -0.3705 H   0  0  0  0  0  0  0  0  0  0  0  0
   -2.5041   -3.5396   -0.2784 H   0  0  0  0  0  0  0  0  0  0  0  0
   -1.3334   -1.5202    1.7118 H   0  0  0  0  0  0  0  0  0  0  0  0
   -3.0267   -1.9450    1.4860 H   0  0  0  0  0  0  0  0  0  0  0  0
    0.2734   -0.5763   -0.6120 H   0  0  0  0  0  0  0  0  0  0  0  0
   -1.8231    3.4160    1.3972 H   0  0  0  0  0  0  0  0  0  0  0  0
   -4.0657    3.2144    0.5959 H   0  0  0  0  0  0  0  0  0  0  0  0
   -3.8272    2.8092    2.3398 H   0  0  0  0  0  0  0  0  0  0  0  0
   -5.8080    1.1766    2.0671 H   0  0  0  0  0  0  0  0  0  0  0  0
   -6.1946    2.9230    2.0362 H   0  0  0  0  0  0  0  0  0  0  0  0
   -7.7541    0.6521    0.8222 H   0  0  0  0  0  0  0  0  0  0  0  0
   -8.0227    1.4770   -0.7315 H   0  0  0  0  0  0  0  0  0  0  0  0
   -8.2157    2.3877    0.7833 H   0  0  0  0  0  0  0  0  0  0  0  0
    2.4928    4.6210    0.8822 H   0  0  0  0  0  0  0  0  0  0  0  0
    2.2056    0.2595   -1.6559 H   0  0  0  0  0  0  0  0  0  0  0  0
    4.5698    1.3740    0.9573 H   0  0  0  0  0  0  0  0  0  0  0  0
    6.9506    0.7861    0.8993 H   0  0  0  0  0  0  0  0  0  0  0  0
    7.8309   -0.7291   -0.8597 H   0  0  0  0  0  0  0  0  0  0  0  0
    3.8872   -1.0746   -2.5320 H   0  0  0  0  0  0  0  0  0  0  0  0
    7.1835   -3.3234   -4.3861 H   0  0  0  0  0  0  0  0  0  0  0  0
  1  2  1  0
  2  3  1  0
  3  4  1  0
  4  5  1  0
  5  6  1  0
  6  7  2  0
  7  8  1  0
  8  9  2  0
  9 10  1  0
 10 11  2  0
 11 12  1  0
 12 13  1  0
 13 14  1  0
 14 15  1  0
 15 16  1  0
  9 17  1  0
 17 18  2  0
 18 19  1  0
 19 20  2  0
 20 21  1  0
 21 22  1  0
 22 23  2  0
 23 24  1  0
 24 25  2  0
 25 26  1  0
 26 27  2  0
 26 28  1  0
 28 29  3  0
 11  6  1  0
 20  8  1  0
 27 22  1  0
  1 30  1  0
  1 31  1  0
  1 32  1  0
  3 33  1  0
  3 34  1  0
  4 35  1  0
  4 36  1  0
  7 37  1  0
 10 38  1  0
 13 39  1  0
 13 40  1  0
 14 41  1  0
 14 42  1  0
 16 43  1  0
 16 44  1  0
 16 45  1  0
 18 46  1  0
 21 47  1  0
 23 48  1  0
 24 49  1  0
 25 50  1  0
 27 51  1  0
 29 52  1  0
M  END
>  <energy_abs>  (162) 
60.52072009396116

>  <SMILES>  (162) 
COCCOc1cc2c(cc1OCCOC)ncnc2Nc3cccc(c3)C#C

>  <cluster_no>  (162) 
162

>  <fda_drugs_id>  (162) 
AAKJLRGGTJKAMG-UHFFFAOYSA-N

>  <initial_conformation_id>  (162) 
138

>  <minimize_method>  (162) 
MMFF

$$$$

     RDKit          3D

 52 54  0  0  0  0  0  0  0  0999 V2000
   -4.5855   -3.4298    1.9233 C   0  0  0  0  0  0  0  0  0  0  0  0
   -3.3920   -3.3125    1.1579 O   0  0  0  0  0  0  0  0  0  0  0  0
   -3.3163   -2.0339    0.5218 C   0  0  0  0  0  0  0  0  0  0  0  0
   -2.0293   -1.9533   -0.2952 C   0  0  0  0  0  0  0  0  0  0  0  0
   -1.9934   -0.7680   -1.1009 O   0  0  0  0  0  0  0  0  0  0  0  0
   -1.3152    0.2490   -0.4818 C   0  0  0  0  0  0  0  0  0  0  0  0
    0.0728    0.2930   -0.5890 C   0  0  0  0  0  0  0  0  0  0  0  0
    0.8020    1.3540   -0.0029 C   0  0  0  0  0  0  0  0  0  0  0  0
    0.1065    2.3816    0.6512 C   0  0  0  0  0  0  0  0  0  0  0  0
   -1.2825    2.3248    0.7237 C   0  0  0  0  0  0  0  0  0  0  0  0
   -2.0100    1.2697    0.1688 C   0  0  0  0  0  0  0  0  0  0  0  0
   -3.3723    1.1509    0.1957 O   0  0  0  0  0  0  0  0  0  0  0  0
   -4.1042    2.0391    1.0436 C   0  0  0  0  0  0  0  0  0  0  0  0
   -5.5579    1.5583    1.1075 C   0  0  0  0  0  0  0  0  0  0  0  0
   -5.6917    0.3180    1.8138 O   0  0  0  0  0  0  0  0  0  0  0  0
   -5.7400    0.4795    3.2247 C   0  0  0  0  0  0  0  0  0  0  0  0
    0.7231    3.4256    1.2094 N   0  0  0  0  0  0  0  0  0  0  0  0
    2.0561    3.4593    1.1107 C   0  0  0  0  0  0  0  0  0  0  0  0
    2.8274    2.5436    0.5205 N   0  0  0  0  0  0  0  0  0  0  0  0
    2.2058    1.4848   -0.0283 C   0  0  0  0  0  0  0  0  0  0  0  0
    2.9778    0.4584   -0.6379 N   0  0  0  0  0  0  0  0  0  0  0  0
    4.3464    0.4742   -0.9920 C   0  0  0  0  0  0  0  0  0  0  0  0
    5.0239    1.6456   -1.3510 C   0  0  0  0  0  0  0  0  0  0  0  0
    6.3609    1.6121   -1.7593 C   0  0  0  0  0  0  0  0  0  0  0  0
    7.0361    0.3965   -1.8395 C   0  0  0  0  0  0  0  0  0  0  0  0
    6.3693   -0.7856   -1.5229 C   0  0  0  0  0  0  0  0  0  0  0  0
    5.0311   -0.7460   -1.1149 C   0  0  0  0  0  0  0  0  0  0  0  0
    7.0497   -2.0406   -1.6221 C   0  0  0  0  0  0  0  0  0  0  0  0
    7.6203   -3.0939   -1.7055 C   0  0  0  0  0  0  0  0  0  0  0  0
   -5.4655   -3.3227    1.2821 H   0  0  0  0  0  0  0  0  0  0  0  0
   -4.6040   -2.6798    2.7195 H   0  0  0  0  0  0  0  0  0  0  0  0
   -4.6049   -4.4229    2.3799 H   0  0  0  0  0  0  0  0  0  0  0  0
   -4.1848   -1.8841   -0.1306 H   0  0  0  0  0  0  0  0  0  0  0  0
   -3.3233   -1.2515    1.2881 H   0  0  0  0  0  0  0  0  0  0  0  0
   -1.9846   -2.8077   -0.9811 H   0  0  0  0  0  0  0  0  0  0  0  0
   -1.1500   -2.0536    0.3555 H   0  0  0  0  0  0  0  0  0  0  0  0
    0.5783   -0.4897   -1.1484 H   0  0  0  0  0  0  0  0  0  0  0  0
   -1.7832    3.1489    1.2226 H   0  0  0  0  0  0  0  0  0  0  0  0
   -3.6678    2.0485    2.0475 H   0  0  0  0  0  0  0  0  0  0  0  0
   -4.0805    3.0459    0.6117 H   0  0  0  0  0  0  0  0  0  0  0  0
   -5.9225    1.3741    0.0910 H   0  0  0  0  0  0  0  0  0  0  0  0
   -6.2013    2.3193    1.5640 H   0  0  0  0  0  0  0  0  0  0  0  0
   -5.8542   -0.5085    3.6778 H   0  0  0  0  0  0  0  0  0  0  0  0
   -4.8171    0.9254    3.6035 H   0  0  0  0  0  0  0  0  0  0  0  0
   -6.6000    1.0919    3.5104 H   0  0  0  0  0  0  0  0  0  0  0  0
    2.5601    4.3108    1.5554 H   0  0  0  0  0  0  0  0  0  0  0  0
    2.7104   -0.4349   -0.2376 H   0  0  0  0  0  0  0  0  0  0  0  0
    4.5152    2.6056   -1.3245 H   0  0  0  0  0  0  0  0  0  0  0  0
    6.8684    2.5365   -2.0217 H   0  0  0  0  0  0  0  0  0  0  0  0
    8.0749    0.3774   -2.1592 H   0  0  0  0  0  0  0  0  0  0  0  0
    4.5231   -1.6797   -0.8873 H   0  0  0  0  0  0  0  0  0  0  0  0
    8.1269   -4.0277   -1.7806 H   0  0  0  0  0  0  0  0  0  0  0  0
  1  2  1  0
  2  3  1  0
  3  4  1  0
  4  5  1  0
  5  6  1  0
  6  7  2  0
  7  8  1  0
  8  9  2  0
  9 10  1  0
 10 11  2  0
 11 12  1  0
 12 13  1  0
 13 14  1  0
 14 15  1  0
 15 16  1  0
  9 17  1  0
 17 18  2  0
 18 19  1  0
 19 20  2  0
 20 21  1  0
 21 22  1  0
 22 23  2  0
 23 24  1  0
 24 25  2  0
 25 26  1  0
 26 27  2  0
 26 28  1  0
 28 29  3  0
 11  6  1  0
 20  8  1  0
 27 22  1  0
  1 30  1  0
  1 31  1  0
  1 32  1  0
  3 33  1  0
  3 34  1  0
  4 35  1  0
  4 36  1  0
  7 37  1  0
 10 38  1  0
 13 39  1  0
 13 40  1  0
 14 41  1  0
 14 42  1  0
 16 43  1  0
 16 44  1  0
 16 45  1  0
 18 46  1  0
 21 47  1  0
 23 48  1  0
 24 49  1  0
 25 50  1  0
 27 51  1  0
 29 52  1  0
M  END
>  <energy_abs>  (163) 
58.185948067278204

>  <SMILES>  (163) 
COCCOc1cc2c(cc1OCCOC)ncnc2Nc3cccc(c3)C#C

>  <cluster_no>  (163) 
163

>  <fda_drugs_id>  (163) 
AAKJLRGGTJKAMG-UHFFFAOYSA-N

>  <initial_conformation_id>  (163) 
137

>  <minimize_method>  (163) 
MMFF

$$$$

     RDKit          3D

 52 54  0  0  0  0  0  0  0  0999 V2000
    0.0065   -5.1146    0.7621 C   0  0  0  0  0  0  0  0  0  0  0  0
   -0.5920   -4.2234   -0.1708 O   0  0  0  0  0  0  0  0  0  0  0  0
   -1.2048   -3.1135    0.4849 C   0  0  0  0  0  0  0  0  0  0  0  0
   -1.8433   -2.2046   -0.5619 C   0  0  0  0  0  0  0  0  0  0  0  0
   -2.3943   -1.0348    0.0390 O   0  0  0  0  0  0  0  0  0  0  0  0
   -1.6255    0.0965    0.1263 C   0  0  0  0  0  0  0  0  0  0  0  0
   -0.2510    0.1474   -0.1091 C   0  0  0  0  0  0  0  0  0  0  0  0
    0.4711    1.3626    0.0173 C   0  0  0  0  0  0  0  0  0  0  0  0
   -0.2050    2.5249    0.4054 C   0  0  0  0  0  0  0  0  0  0  0  0
   -1.5723    2.4613    0.6413 C   0  0  0  0  0  0  0  0  0  0  0  0
   -2.2937    1.2696    0.5097 C   0  0  0  0  0  0  0  0  0  0  0  0
   -3.6422    1.1473    0.7327 O   0  0  0  0  0  0  0  0  0  0  0  0
   -4.3655    2.3128    1.1231 C   0  0  0  0  0  0  0  0  0  0  0  0
   -5.8371    1.9340    1.2878 C   0  0  0  0  0  0  0  0  0  0  0  0
   -6.6457    3.0570    1.6399 O   0  0  0  0  0  0  0  0  0  0  0  0
   -6.6213    3.3437    3.0318 C   0  0  0  0  0  0  0  0  0  0  0  0
    0.4106    3.6989    0.5651 N   0  0  0  0  0  0  0  0  0  0  0  0
    1.7288    3.7223    0.3440 C   0  0  0  0  0  0  0  0  0  0  0  0
    2.4832    2.6866   -0.0294 N   0  0  0  0  0  0  0  0  0  0  0  0
    1.8568    1.5095   -0.2040 C   0  0  0  0  0  0  0  0  0  0  0  0
    2.6022    0.3798   -0.6402 N   0  0  0  0  0  0  0  0  0  0  0  0
    4.0048    0.2037   -0.6655 C   0  0  0  0  0  0  0  0  0  0  0  0
    4.8653    0.8388    0.2381 C   0  0  0  0  0  0  0  0  0  0  0  0
    6.2402    0.5841    0.2287 C   0  0  0  0  0  0  0  0  0  0  0  0
    6.7739   -0.3350   -0.6717 C   0  0  0  0  0  0  0  0  0  0  0  0
    5.9298   -1.0075   -1.5536 C   0  0  0  0  0  0  0  0  0  0  0  0
    4.5545   -0.7479   -1.5403 C   0  0  0  0  0  0  0  0  0  0  0  0
    6.4672   -1.9689   -2.4674 C   0  0  0  0  0  0  0  0  0  0  0  0
    6.9177   -2.7760   -3.2340 C   0  0  0  0  0  0  0  0  0  0  0  0
    0.7915   -4.6048    1.3289 H   0  0  0  0  0  0  0  0  0  0  0  0
   -0.7481   -5.5201    1.4428 H   0  0  0  0  0  0  0  0  0  0  0  0
    0.4575   -5.9416    0.2072 H   0  0  0  0  0  0  0  0  0  0  0  0
   -0.4535   -2.5680    1.0664 H   0  0  0  0  0  0  0  0  0  0  0  0
   -1.9723   -3.4650    1.1850 H   0  0  0  0  0  0  0  0  0  0  0  0
   -2.6766   -2.7466   -1.0260 H   0  0  0  0  0  0  0  0  0  0  0  0
   -1.1661   -1.9784   -1.3944 H   0  0  0  0  0  0  0  0  0  0  0  0
    0.2973   -0.7525   -0.3671 H   0  0  0  0  0  0  0  0  0  0  0  0
   -2.0608    3.3845    0.9379 H   0  0  0  0  0  0  0  0  0  0  0  0
   -3.9740    2.6993    2.0707 H   0  0  0  0  0  0  0  0  0  0  0  0
   -4.2837    3.0961    0.3596 H   0  0  0  0  0  0  0  0  0  0  0  0
   -6.2121    1.5495    0.3323 H   0  0  0  0  0  0  0  0  0  0  0  0
   -5.9604    1.1181    2.0108 H   0  0  0  0  0  0  0  0  0  0  0  0
   -5.6158    3.6232    3.3572 H   0  0  0  0  0  0  0  0  0  0  0  0
   -7.2901    4.1884    3.2181 H   0  0  0  0  0  0  0  0  0  0  0  0
   -6.9797    2.4849    3.6074 H   0  0  0  0  0  0  0  0  0  0  0  0
    2.2331    4.6730    0.4789 H   0  0  0  0  0  0  0  0  0  0  0  0
    2.1703    0.0096   -1.4811 H   0  0  0  0  0  0  0  0  0  0  0  0
    4.4748    1.5411    0.9699 H   0  0  0  0  0  0  0  0  0  0  0  0
    6.8896    1.1000    0.9310 H   0  0  0  0  0  0  0  0  0  0  0  0
    7.8433   -0.5296   -0.6726 H   0  0  0  0  0  0  0  0  0  0  0  0
    3.9098   -1.2943   -2.2244 H   0  0  0  0  0  0  0  0  0  0  0  0
    7.3183   -3.4915   -3.9136 H   0  0  0  0  0  0  0  0  0  0  0  0
  1  2  1  0
  2  3  1  0
  3  4  1  0
  4  5  1  0
  5  6  1  0
  6  7  2  0
  7  8  1  0
  8  9  2  0
  9 10  1  0
 10 11  2  0
 11 12  1  0
 12 13  1  0
 13 14  1  0
 14 15  1  0
 15 16  1  0
  9 17  1  0
 17 18  2  0
 18 19  1  0
 19 20  2  0
 20 21  1  0
 21 22  1  0
 22 23  2  0
 23 24  1  0
 24 25  2  0
 25 26  1  0
 26 27  2  0
 26 28  1  0
 28 29  3  0
 11  6  1  0
 20  8  1  0
 27 22  1  0
  1 30  1  0
  1 31  1  0
  1 32  1  0
  3 33  1  0
  3 34  1  0
  4 35  1  0
  4 36  1  0
  7 37  1  0
 10 38  1  0
 13 39  1  0
 13 40  1  0
 14 41  1  0
 14 42  1  0
 16 43  1  0
 16 44  1  0
 16 45  1  0
 18 46  1  0
 21 47  1  0
 23 48  1  0
 24 49  1  0
 25 50  1  0
 27 51  1  0
 29 52  1  0
M  END
>  <energy_abs>  (164) 
58.339655986115616

>  <SMILES>  (164) 
COCCOc1cc2c(cc1OCCOC)ncnc2Nc3cccc(c3)C#C

>  <cluster_no>  (164) 
164

>  <fda_drugs_id>  (164) 
AAKJLRGGTJKAMG-UHFFFAOYSA-N

>  <initial_conformation_id>  (164) 
136

>  <minimize_method>  (164) 
MMFF

$$$$

     RDKit          3D

 52 54  0  0  0  0  0  0  0  0999 V2000
   -1.1895   -4.4948   -1.7723 C   0  0  0  0  0  0  0  0  0  0  0  0
   -1.0005   -3.9619   -0.4676 O   0  0  0  0  0  0  0  0  0  0  0  0
   -1.6872   -2.7210   -0.3039 C   0  0  0  0  0  0  0  0  0  0  0  0
   -1.5193   -2.2377    1.1345 C   0  0  0  0  0  0  0  0  0  0  0  0
   -2.1131   -0.9563    1.3253 O   0  0  0  0  0  0  0  0  0  0  0  0
   -1.4166    0.1738    0.9873 C   0  0  0  0  0  0  0  0  0  0  0  0
   -0.0918    0.1985    0.5493 C   0  0  0  0  0  0  0  0  0  0  0  0
    0.5515    1.4213    0.2229 C   0  0  0  0  0  0  0  0  0  0  0  0
   -0.1507    2.6238    0.3634 C   0  0  0  0  0  0  0  0  0  0  0  0
   -1.4683    2.5872    0.7999 C   0  0  0  0  0  0  0  0  0  0  0  0
   -2.1141    1.3857    1.1107 C   0  0  0  0  0  0  0  0  0  0  0  0
   -3.4172    1.2900    1.5309 O   0  0  0  0  0  0  0  0  0  0  0  0
   -4.1397    2.5005    1.7657 C   0  0  0  0  0  0  0  0  0  0  0  0
   -5.5399    2.1512    2.2812 C   0  0  0  0  0  0  0  0  0  0  0  0
   -6.3648    1.5253    1.2926 O   0  0  0  0  0  0  0  0  0  0  0  0
   -6.9104    2.4347    0.3486 C   0  0  0  0  0  0  0  0  0  0  0  0
    0.3918    3.8138    0.0939 N   0  0  0  0  0  0  0  0  0  0  0  0
    1.6640    3.8154   -0.3161 C   0  0  0  0  0  0  0  0  0  0  0  0
    2.4356    2.7412   -0.4932 N   0  0  0  0  0  0  0  0  0  0  0  0
    1.8809    1.5435   -0.2348 C   0  0  0  0  0  0  0  0  0  0  0  0
    2.6442    0.3620   -0.4424 N   0  0  0  0  0  0  0  0  0  0  0  0
    4.0389    0.2341   -0.6360 C   0  0  0  0  0  0  0  0  0  0  0  0
    4.9655    1.1339   -0.0957 C   0  0  0  0  0  0  0  0  0  0  0  0
    6.3410    0.9359   -0.2503 C   0  0  0  0  0  0  0  0  0  0  0  0
    6.8132   -0.1853   -0.9287 C   0  0  0  0  0  0  0  0  0  0  0  0
    5.9088   -1.1139   -1.4409 C   0  0  0  0  0  0  0  0  0  0  0  0
    4.5331   -0.9103   -1.2835 C   0  0  0  0  0  0  0  0  0  0  0  0
    6.3863   -2.2790   -2.1209 C   0  0  0  0  0  0  0  0  0  0  0  0
    6.7872   -3.2569   -2.6909 C   0  0  0  0  0  0  0  0  0  0  0  0
   -0.6383   -5.4363   -1.8426 H   0  0  0  0  0  0  0  0  0  0  0  0
   -2.2496   -4.6959   -1.9540 H   0  0  0  0  0  0  0  0  0  0  0  0
   -0.8011   -3.8048   -2.5276 H   0  0  0  0  0  0  0  0  0  0  0  0
   -2.7539   -2.8449   -0.5269 H   0  0  0  0  0  0  0  0  0  0  0  0
   -1.2850   -1.9871   -1.0109 H   0  0  0  0  0  0  0  0  0  0  0  0
   -2.0519   -2.9348    1.7934 H   0  0  0  0  0  0  0  0  0  0  0  0
   -0.4800   -2.2798    1.4797 H   0  0  0  0  0  0  0  0  0  0  0  0
    0.4791   -0.7198    0.4665 H   0  0  0  0  0  0  0  0  0  0  0  0
   -1.9808    3.5398    0.8880 H   0  0  0  0  0  0  0  0  0  0  0  0
   -4.2092    3.0745    0.8367 H   0  0  0  0  0  0  0  0  0  0  0  0
   -3.6247    3.0884    2.5345 H   0  0  0  0  0  0  0  0  0  0  0  0
   -6.0436    3.0443    2.6680 H   0  0  0  0  0  0  0  0  0  0  0  0
   -5.4509    1.4346    3.1048 H   0  0  0  0  0  0  0  0  0  0  0  0
   -6.1253    2.8841   -0.2644 H   0  0  0  0  0  0  0  0  0  0  0  0
   -7.4894    3.2143    0.8528 H   0  0  0  0  0  0  0  0  0  0  0  0
   -7.5818    1.8787   -0.3117 H   0  0  0  0  0  0  0  0  0  0  0  0
    2.1112    4.7805   -0.5278 H   0  0  0  0  0  0  0  0  0  0  0  0
    2.1291   -0.2573   -1.0594 H   0  0  0  0  0  0  0  0  0  0  0  0
    4.6280    2.0034    0.4622 H   0  0  0  0  0  0  0  0  0  0  0  0
    7.0402    1.6552    0.1677 H   0  0  0  0  0  0  0  0  0  0  0  0
    7.8838   -0.3342   -1.0434 H   0  0  0  0  0  0  0  0  0  0  0  0
    3.8436   -1.6544   -1.6745 H   0  0  0  0  0  0  0  0  0  0  0  0
    7.1447   -4.1242   -3.1953 H   0  0  0  0  0  0  0  0  0  0  0  0
  1  2  1  0
  2  3  1  0
  3  4  1  0
  4  5  1  0
  5  6  1  0
  6  7  2  0
  7  8  1  0
  8  9  2  0
  9 10  1  0
 10 11  2  0
 11 12  1  0
 12 13  1  0
 13 14  1  0
 14 15  1  0
 15 16  1  0
  9 17  1  0
 17 18  2  0
 18 19  1  0
 19 20  2  0
 20 21  1  0
 21 22  1  0
 22 23  2  0
 23 24  1  0
 24 25  2  0
 25 26  1  0
 26 27  2  0
 26 28  1  0
 28 29  3  0
 11  6  1  0
 20  8  1  0
 27 22  1  0
  1 30  1  0
  1 31  1  0
  1 32  1  0
  3 33  1  0
  3 34  1  0
  4 35  1  0
  4 36  1  0
  7 37  1  0
 10 38  1  0
 13 39  1  0
 13 40  1  0
 14 41  1  0
 14 42  1  0
 16 43  1  0
 16 44  1  0
 16 45  1  0
 18 46  1  0
 21 47  1  0
 23 48  1  0
 24 49  1  0
 25 50  1  0
 27 51  1  0
 29 52  1  0
M  END
>  <energy_abs>  (165) 
61.21682805811572

>  <SMILES>  (165) 
COCCOc1cc2c(cc1OCCOC)ncnc2Nc3cccc(c3)C#C

>  <cluster_no>  (165) 
165

>  <fda_drugs_id>  (165) 
AAKJLRGGTJKAMG-UHFFFAOYSA-N

>  <initial_conformation_id>  (165) 
135

>  <minimize_method>  (165) 
MMFF

$$$$

     RDKit          3D

 52 54  0  0  0  0  0  0  0  0999 V2000
   -4.4358   -4.5479    0.0721 C   0  0  0  0  0  0  0  0  0  0  0  0
   -3.3457   -3.6323    0.0921 O   0  0  0  0  0  0  0  0  0  0  0  0
   -3.0072   -3.1884   -1.2281 C   0  0  0  0  0  0  0  0  0  0  0  0
   -1.8812   -2.1582   -1.1454 C   0  0  0  0  0  0  0  0  0  0  0  0
   -2.4288   -0.9179   -0.6967 O   0  0  0  0  0  0  0  0  0  0  0  0
   -1.5700    0.1256   -0.4852 C   0  0  0  0  0  0  0  0  0  0  0  0
   -0.1963    0.1059   -0.7155 C   0  0  0  0  0  0  0  0  0  0  0  0
    0.6110    1.2492   -0.4492 C   0  0  0  0  0  0  0  0  0  0  0  0
    0.0197    2.4143    0.0604 C   0  0  0  0  0  0  0  0  0  0  0  0
   -1.3485    2.4297    0.2625 C   0  0  0  0  0  0  0  0  0  0  0  0
   -2.1326    1.3037    0.0058 C   0  0  0  0  0  0  0  0  0  0  0  0
   -3.4846    1.4076    0.2002 O   0  0  0  0  0  0  0  0  0  0  0  0
   -3.8497    0.9740    1.5185 C   0  0  0  0  0  0  0  0  0  0  0  0
   -4.8643    1.9723    2.0895 C   0  0  0  0  0  0  0  0  0  0  0  0
   -5.3003    1.6410    3.4110 O   0  0  0  0  0  0  0  0  0  0  0  0
   -4.3569    1.9919    4.4150 C   0  0  0  0  0  0  0  0  0  0  0  0
    0.7179    3.5137    0.3601 N   0  0  0  0  0  0  0  0  0  0  0  0
    2.0370    3.4593    0.1596 C   0  0  0  0  0  0  0  0  0  0  0  0
    2.7163    2.4174   -0.3288 N   0  0  0  0  0  0  0  0  0  0  0  0
    2.0048    1.3196   -0.6475 C   0  0  0  0  0  0  0  0  0  0  0  0
    2.6699    0.2040   -1.2350 N   0  0  0  0  0  0  0  0  0  0  0  0
    4.0619   -0.0531   -1.2761 C   0  0  0  0  0  0  0  0  0  0  0  0
    4.5826   -0.8350   -2.3209 C   0  0  0  0  0  0  0  0  0  0  0  0
    5.9404   -1.1728   -2.3643 C   0  0  0  0  0  0  0  0  0  0  0  0
    6.7942   -0.7522   -1.3478 C   0  0  0  0  0  0  0  0  0  0  0  0
    6.2891   -0.0040   -0.2818 C   0  0  0  0  0  0  0  0  0  0  0  0
    4.9288    0.3301   -0.2427 C   0  0  0  0  0  0  0  0  0  0  0  0
    7.1582    0.4055    0.7794 C   0  0  0  0  0  0  0  0  0  0  0  0
    7.8888    0.7514    1.6682 C   0  0  0  0  0  0  0  0  0  0  0  0
   -4.6147   -4.8974    1.0949 H   0  0  0  0  0  0  0  0  0  0  0  0
   -5.3441   -4.0521   -0.2924 H   0  0  0  0  0  0  0  0  0  0  0  0
   -4.1972   -5.4141   -0.5541 H   0  0  0  0  0  0  0  0  0  0  0  0
   -2.6653   -4.0539   -1.8066 H   0  0  0  0  0  0  0  0  0  0  0  0
   -3.8931   -2.7497   -1.7036 H   0  0  0  0  0  0  0  0  0  0  0  0
   -1.4522   -2.0182   -2.1425 H   0  0  0  0  0  0  0  0  0  0  0  0
   -1.1192   -2.5079   -0.4423 H   0  0  0  0  0  0  0  0  0  0  0  0
    0.2857   -0.7932   -1.0859 H   0  0  0  0  0  0  0  0  0  0  0  0
   -1.8180    3.3326    0.6335 H   0  0  0  0  0  0  0  0  0  0  0  0
   -4.3102   -0.0268    1.4520 H   0  0  0  0  0  0  0  0  0  0  0  0
   -2.9859    0.8869    2.1860 H   0  0  0  0  0  0  0  0  0  0  0  0
   -5.7526    1.9785    1.4488 H   0  0  0  0  0  0  0  0  0  0  0  0
   -4.4647    2.9953    2.0546 H   0  0  0  0  0  0  0  0  0  0  0  0
   -4.8289    1.8339    5.3924 H   0  0  0  0  0  0  0  0  0  0  0  0
   -3.4730    1.3516    4.3614 H   0  0  0  0  0  0  0  0  0  0  0  0
   -4.0680    3.0451    4.3321 H   0  0  0  0  0  0  0  0  0  0  0  0
    2.6091    4.3462    0.4120 H   0  0  0  0  0  0  0  0  0  0  0  0
    2.2328    0.0110   -2.1311 H   0  0  0  0  0  0  0  0  0  0  0  0
    3.9362   -1.1871   -3.1221 H   0  0  0  0  0  0  0  0  0  0  0  0
    6.3263   -1.7742   -3.1863 H   0  0  0  0  0  0  0  0  0  0  0  0
    7.8491   -1.0197   -1.3826 H   0  0  0  0  0  0  0  0  0  0  0  0
    4.5446    0.8828    0.6105 H   0  0  0  0  0  0  0  0  0  0  0  0
    8.5317    1.0483    2.4632 H   0  0  0  0  0  0  0  0  0  0  0  0
  1  2  1  0
  2  3  1  0
  3  4  1  0
  4  5  1  0
  5  6  1  0
  6  7  2  0
  7  8  1  0
  8  9  2  0
  9 10  1  0
 10 11  2  0
 11 12  1  0
 12 13  1  0
 13 14  1  0
 14 15  1  0
 15 16  1  0
  9 17  1  0
 17 18  2  0
 18 19  1  0
 19 20  2  0
 20 21  1  0
 21 22  1  0
 22 23  2  0
 23 24  1  0
 24 25  2  0
 25 26  1  0
 26 27  2  0
 26 28  1  0
 28 29  3  0
 11  6  1  0
 20  8  1  0
 27 22  1  0
  1 30  1  0
  1 31  1  0
  1 32  1  0
  3 33  1  0
  3 34  1  0
  4 35  1  0
  4 36  1  0
  7 37  1  0
 10 38  1  0
 13 39  1  0
 13 40  1  0
 14 41  1  0
 14 42  1  0
 16 43  1  0
 16 44  1  0
 16 45  1  0
 18 46  1  0
 21 47  1  0
 23 48  1  0
 24 49  1  0
 25 50  1  0
 27 51  1  0
 29 52  1  0
M  END
>  <energy_abs>  (166) 
60.048574457119514

>  <SMILES>  (166) 
COCCOc1cc2c(cc1OCCOC)ncnc2Nc3cccc(c3)C#C

>  <cluster_no>  (166) 
166

>  <fda_drugs_id>  (166) 
AAKJLRGGTJKAMG-UHFFFAOYSA-N

>  <initial_conformation_id>  (166) 
134

>  <minimize_method>  (166) 
MMFF

$$$$

     RDKit          3D

 52 54  0  0  0  0  0  0  0  0999 V2000
   -0.9893   -5.0221   -0.7732 C   0  0  0  0  0  0  0  0  0  0  0  0
   -1.2182   -3.6186   -0.7661 O   0  0  0  0  0  0  0  0  0  0  0  0
   -2.5391   -3.2973   -0.3060 C   0  0  0  0  0  0  0  0  0  0  0  0
   -2.6920   -1.7780   -0.2377 C   0  0  0  0  0  0  0  0  0  0  0  0
   -1.8909   -1.2884    0.8540 O   0  0  0  0  0  0  0  0  0  0  0  0
   -1.3950   -0.0429    0.5716 C   0  0  0  0  0  0  0  0  0  0  0  0
   -0.0370    0.0384    0.2730 C   0  0  0  0  0  0  0  0  0  0  0  0
    0.5656    1.2905    0.0101 C   0  0  0  0  0  0  0  0  0  0  0  0
   -0.2245    2.4482    0.0496 C   0  0  0  0  0  0  0  0  0  0  0  0
   -1.5767    2.3395    0.3663 C   0  0  0  0  0  0  0  0  0  0  0  0
   -2.1790    1.1092    0.6448 C   0  0  0  0  0  0  0  0  0  0  0  0
   -3.4934    0.9345    0.9832 O   0  0  0  0  0  0  0  0  0  0  0  0
   -4.2514    2.1027    1.2937 C   0  0  0  0  0  0  0  0  0  0  0  0
   -5.6226    1.6647    1.8087 C   0  0  0  0  0  0  0  0  0  0  0  0
   -6.4750    2.7740    2.0936 O   0  0  0  0  0  0  0  0  0  0  0  0
   -6.2130    3.3683    3.3591 C   0  0  0  0  0  0  0  0  0  0  0  0
    0.2684    3.6638   -0.1984 N   0  0  0  0  0  0  0  0  0  0  0  0
    1.5695    3.7357   -0.4984 C   0  0  0  0  0  0  0  0  0  0  0  0
    2.4221    2.7108   -0.5647 N   0  0  0  0  0  0  0  0  0  0  0  0
    1.9275    1.4874   -0.3008 C   0  0  0  0  0  0  0  0  0  0  0  0
    2.7940    0.3603   -0.3260 N   0  0  0  0  0  0  0  0  0  0  0  0
    4.1181    0.2686   -0.8110 C   0  0  0  0  0  0  0  0  0  0  0  0
    4.6016    1.0642   -1.8563 C   0  0  0  0  0  0  0  0  0  0  0  0
    5.9012    0.9022   -2.3474 C   0  0  0  0  0  0  0  0  0  0  0  0
    6.7323   -0.0799   -1.8139 C   0  0  0  0  0  0  0  0  0  0  0  0
    6.2578   -0.9090   -0.7995 C   0  0  0  0  0  0  0  0  0  0  0  0
    4.9563   -0.7425   -0.3118 C   0  0  0  0  0  0  0  0  0  0  0  0
    7.0986   -1.9343   -0.2603 C   0  0  0  0  0  0  0  0  0  0  0  0
    7.8026   -2.7956    0.1931 C   0  0  0  0  0  0  0  0  0  0  0  0
    0.0421   -5.2002   -1.0952 H   0  0  0  0  0  0  0  0  0  0  0  0
   -1.6690   -5.5177   -1.4753 H   0  0  0  0  0  0  0  0  0  0  0  0
   -1.1154   -5.4365    0.2313 H   0  0  0  0  0  0  0  0  0  0  0  0
   -2.6931   -3.7343    0.6883 H   0  0  0  0  0  0  0  0  0  0  0  0
   -3.2707   -3.7136   -1.0096 H   0  0  0  0  0  0  0  0  0  0  0  0
   -2.3839   -1.3366   -1.1952 H   0  0  0  0  0  0  0  0  0  0  0  0
   -3.7386   -1.5258   -0.0391 H   0  0  0  0  0  0  0  0  0  0  0  0
    0.5373   -0.8833    0.2278 H   0  0  0  0  0  0  0  0  0  0  0  0
   -2.1492    3.2629    0.3894 H   0  0  0  0  0  0  0  0  0  0  0  0
   -4.3866    2.7211    0.3986 H   0  0  0  0  0  0  0  0  0  0  0  0
   -3.7424    2.6971    2.0607 H   0  0  0  0  0  0  0  0  0  0  0  0
   -6.1161    1.0656    1.0338 H   0  0  0  0  0  0  0  0  0  0  0  0
   -5.5283    1.0081    2.6824 H   0  0  0  0  0  0  0  0  0  0  0  0
   -5.2144    3.8129    3.3840 H   0  0  0  0  0  0  0  0  0  0  0  0
   -6.9459    4.1637    3.5212 H   0  0  0  0  0  0  0  0  0  0  0  0
   -6.3189    2.6309    4.1604 H   0  0  0  0  0  0  0  0  0  0  0  0
    1.9725    4.7223   -0.7031 H   0  0  0  0  0  0  0  0  0  0  0  0
    2.6763   -0.1680    0.5341 H   0  0  0  0  0  0  0  0  0  0  0  0
    3.9691    1.8210   -2.3106 H   0  0  0  0  0  0  0  0  0  0  0  0
    6.2582    1.5409   -3.1506 H   0  0  0  0  0  0  0  0  0  0  0  0
    7.7413   -0.1999   -2.2005 H   0  0  0  0  0  0  0  0  0  0  0  0
    4.5981   -1.4082    0.4694 H   0  0  0  0  0  0  0  0  0  0  0  0
    8.4260   -3.5592    0.5957 H   0  0  0  0  0  0  0  0  0  0  0  0
  1  2  1  0
  2  3  1  0
  3  4  1  0
  4  5  1  0
  5  6  1  0
  6  7  2  0
  7  8  1  0
  8  9  2  0
  9 10  1  0
 10 11  2  0
 11 12  1  0
 12 13  1  0
 13 14  1  0
 14 15  1  0
 15 16  1  0
  9 17  1  0
 17 18  2  0
 18 19  1  0
 19 20  2  0
 20 21  1  0
 21 22  1  0
 22 23  2  0
 23 24  1  0
 24 25  2  0
 25 26  1  0
 26 27  2  0
 26 28  1  0
 28 29  3  0
 11  6  1  0
 20  8  1  0
 27 22  1  0
  1 30  1  0
  1 31  1  0
  1 32  1  0
  3 33  1  0
  3 34  1  0
  4 35  1  0
  4 36  1  0
  7 37  1  0
 10 38  1  0
 13 39  1  0
 13 40  1  0
 14 41  1  0
 14 42  1  0
 16 43  1  0
 16 44  1  0
 16 45  1  0
 18 46  1  0
 21 47  1  0
 23 48  1  0
 24 49  1  0
 25 50  1  0
 27 51  1  0
 29 52  1  0
M  END
>  <energy_abs>  (167) 
57.44226686985289

>  <SMILES>  (167) 
COCCOc1cc2c(cc1OCCOC)ncnc2Nc3cccc(c3)C#C

>  <cluster_no>  (167) 
167

>  <fda_drugs_id>  (167) 
AAKJLRGGTJKAMG-UHFFFAOYSA-N

>  <initial_conformation_id>  (167) 
133

>  <minimize_method>  (167) 
MMFF

$$$$

     RDKit          3D

 52 54  0  0  0  0  0  0  0  0999 V2000
   -4.2230   -3.9671    1.6896 C   0  0  0  0  0  0  0  0  0  0  0  0
   -3.2269   -2.9805    1.4518 O   0  0  0  0  0  0  0  0  0  0  0  0
   -2.3644   -3.3535    0.3732 C   0  0  0  0  0  0  0  0  0  0  0  0
   -1.3245   -2.2549    0.1550 C   0  0  0  0  0  0  0  0  0  0  0  0
   -1.9629   -1.1283   -0.4703 O   0  0  0  0  0  0  0  0  0  0  0  0
   -1.3543    0.0769   -0.2329 C   0  0  0  0  0  0  0  0  0  0  0  0
    0.0340    0.2252   -0.3110 C   0  0  0  0  0  0  0  0  0  0  0  0
    0.6608    1.4879   -0.1140 C   0  0  0  0  0  0  0  0  0  0  0  0
   -0.1439    2.6143    0.1096 C   0  0  0  0  0  0  0  0  0  0  0  0
   -1.5237    2.4582    0.1395 C   0  0  0  0  0  0  0  0  0  0  0  0
   -2.1416    1.2088   -0.0091 C   0  0  0  0  0  0  0  0  0  0  0  0
   -3.5103    1.2438    0.0222 O   0  0  0  0  0  0  0  0  0  0  0  0
   -4.1340    0.1816    0.7564 C   0  0  0  0  0  0  0  0  0  0  0  0
   -5.5560    0.5988    1.1446 C   0  0  0  0  0  0  0  0  0  0  0  0
   -5.6221    1.4226    2.3116 O   0  0  0  0  0  0  0  0  0  0  0  0
   -5.1320    2.7431    2.1015 C   0  0  0  0  0  0  0  0  0  0  0  0
    0.3591    3.8409    0.2887 N   0  0  0  0  0  0  0  0  0  0  0  0
    1.6900    3.9566    0.2399 C   0  0  0  0  0  0  0  0  0  0  0  0
    2.5614    2.9615    0.0375 N   0  0  0  0  0  0  0  0  0  0  0  0
    2.0570    1.7257   -0.1350 C   0  0  0  0  0  0  0  0  0  0  0  0
    2.9261    0.6331   -0.3978 N   0  0  0  0  0  0  0  0  0  0  0  0
    4.3135    0.5684   -0.6546 C   0  0  0  0  0  0  0  0  0  0  0  0
    5.1223    1.6792   -0.9091 C   0  0  0  0  0  0  0  0  0  0  0  0
    6.4797    1.5375   -1.2239 C   0  0  0  0  0  0  0  0  0  0  0  0
    7.0432    0.2693   -1.3220 C   0  0  0  0  0  0  0  0  0  0  0  0
    6.2437   -0.8572   -1.1313 C   0  0  0  0  0  0  0  0  0  0  0  0
    4.8925   -0.7052   -0.8020 C   0  0  0  0  0  0  0  0  0  0  0  0
    6.7956   -2.1690   -1.2994 C   0  0  0  0  0  0  0  0  0  0  0  0
    7.2597   -3.2630   -1.4794 C   0  0  0  0  0  0  0  0  0  0  0  0
   -4.8410   -4.1127    0.7940 H   0  0  0  0  0  0  0  0  0  0  0  0
   -3.7597   -4.9132    1.9872 H   0  0  0  0  0  0  0  0  0  0  0  0
   -4.8683   -3.6172    2.5042 H   0  0  0  0  0  0  0  0  0  0  0  0
   -1.8557   -4.2887    0.6392 H   0  0  0  0  0  0  0  0  0  0  0  0
   -2.9610   -3.4994   -0.5334 H   0  0  0  0  0  0  0  0  0  0  0  0
   -0.8890   -1.9739    1.1229 H   0  0  0  0  0  0  0  0  0  0  0  0
   -0.5437   -2.6292   -0.5159 H   0  0  0  0  0  0  0  0  0  0  0  0
    0.6414   -0.6392   -0.5635 H   0  0  0  0  0  0  0  0  0  0  0  0
   -2.1438    3.3397    0.2885 H   0  0  0  0  0  0  0  0  0  0  0  0
   -3.5650   -0.0651    1.6641 H   0  0  0  0  0  0  0  0  0  0  0  0
   -4.2240   -0.6900    0.0983 H   0  0  0  0  0  0  0  0  0  0  0  0
   -6.0760    1.0945    0.3142 H   0  0  0  0  0  0  0  0  0  0  0  0
   -6.1195   -0.3070    1.3962 H   0  0  0  0  0  0  0  0  0  0  0  0
   -5.4753    3.3632    2.9362 H   0  0  0  0  0  0  0  0  0  0  0  0
   -4.0406    2.7521    2.1042 H   0  0  0  0  0  0  0  0  0  0  0  0
   -5.5133    3.1779    1.1685 H   0  0  0  0  0  0  0  0  0  0  0  0
    2.1023    4.9528    0.3796 H   0  0  0  0  0  0  0  0  0  0  0  0
    2.6210   -0.1902    0.1053 H   0  0  0  0  0  0  0  0  0  0  0  0
    4.7211    2.6879   -0.8685 H   0  0  0  0  0  0  0  0  0  0  0  0
    7.0955    2.4219   -1.3879 H   0  0  0  0  0  0  0  0  0  0  0  0
    8.0951    0.1667   -1.5780 H   0  0  0  0  0  0  0  0  0  0  0  0
    4.2803   -1.5981   -0.6794 H   0  0  0  0  0  0  0  0  0  0  0  0
    7.6745   -4.2289   -1.6680 H   0  0  0  0  0  0  0  0  0  0  0  0
  1  2  1  0
  2  3  1  0
  3  4  1  0
  4  5  1  0
  5  6  1  0
  6  7  2  0
  7  8  1  0
  8  9  2  0
  9 10  1  0
 10 11  2  0
 11 12  1  0
 12 13  1  0
 13 14  1  0
 14 15  1  0
 15 16  1  0
  9 17  1  0
 17 18  2  0
 18 19  1  0
 19 20  2  0
 20 21  1  0
 21 22  1  0
 22 23  2  0
 23 24  1  0
 24 25  2  0
 25 26  1  0
 26 27  2  0
 26 28  1  0
 28 29  3  0
 11  6  1  0
 20  8  1  0
 27 22  1  0
  1 30  1  0
  1 31  1  0
  1 32  1  0
  3 33  1  0
  3 34  1  0
  4 35  1  0
  4 36  1  0
  7 37  1  0
 10 38  1  0
 13 39  1  0
 13 40  1  0
 14 41  1  0
 14 42  1  0
 16 43  1  0
 16 44  1  0
 16 45  1  0
 18 46  1  0
 21 47  1  0
 23 48  1  0
 24 49  1  0
 25 50  1  0
 27 51  1  0
 29 52  1  0
M  END
>  <energy_abs>  (168) 
59.482016896791414

>  <SMILES>  (168) 
COCCOc1cc2c(cc1OCCOC)ncnc2Nc3cccc(c3)C#C

>  <cluster_no>  (168) 
168

>  <fda_drugs_id>  (168) 
AAKJLRGGTJKAMG-UHFFFAOYSA-N

>  <initial_conformation_id>  (168) 
132

>  <minimize_method>  (168) 
MMFF

$$$$

     RDKit          3D

 52 54  0  0  0  0  0  0  0  0999 V2000
   -3.3626   -5.7115   -0.3215 C   0  0  0  0  0  0  0  0  0  0  0  0
   -2.3766   -4.6931   -0.4341 O   0  0  0  0  0  0  0  0  0  0  0  0
   -2.8751   -3.4324    0.0129 C   0  0  0  0  0  0  0  0  0  0  0  0
   -1.7756   -2.3828   -0.1140 C   0  0  0  0  0  0  0  0  0  0  0  0
   -2.2964   -1.1266    0.3129 O   0  0  0  0  0  0  0  0  0  0  0  0
   -1.4566   -0.0432    0.3017 C   0  0  0  0  0  0  0  0  0  0  0  0
   -0.1320   -0.0675   -0.1376 C   0  0  0  0  0  0  0  0  0  0  0  0
    0.6674    1.1051   -0.1199 C   0  0  0  0  0  0  0  0  0  0  0  0
    0.1222    2.2995    0.3655 C   0  0  0  0  0  0  0  0  0  0  0  0
   -1.1975    2.3108    0.7986 C   0  0  0  0  0  0  0  0  0  0  0  0
   -1.9974    1.1634    0.7715 C   0  0  0  0  0  0  0  0  0  0  0  0
   -3.3061    1.1159    1.1824 O   0  0  0  0  0  0  0  0  0  0  0  0
   -3.8965    2.3171    1.6754 C   0  0  0  0  0  0  0  0  0  0  0  0
   -5.3379    2.0130    2.0830 C   0  0  0  0  0  0  0  0  0  0  0  0
   -5.9958    3.1554    2.6315 O   0  0  0  0  0  0  0  0  0  0  0  0
   -6.5129    4.0295    1.6371 C   0  0  0  0  0  0  0  0  0  0  0  0
    0.8181    3.4371    0.4317 N   0  0  0  0  0  0  0  0  0  0  0  0
    2.0879    3.3906    0.0168 C   0  0  0  0  0  0  0  0  0  0  0  0
    2.7178    2.3201   -0.4709 N   0  0  0  0  0  0  0  0  0  0  0  0
    2.0092    1.1800   -0.5493 C   0  0  0  0  0  0  0  0  0  0  0  0
    2.6177    0.0186   -1.1000 N   0  0  0  0  0  0  0  0  0  0  0  0
    3.9902   -0.2232   -1.3404 C   0  0  0  0  0  0  0  0  0  0  0  0
    4.3525   -1.1725   -2.3100 C   0  0  0  0  0  0  0  0  0  0  0  0
    5.6925   -1.4959   -2.5401 C   0  0  0  0  0  0  0  0  0  0  0  0
    6.6933   -0.8916   -1.7831 C   0  0  0  0  0  0  0  0  0  0  0  0
    6.3516    0.0251   -0.7893 C   0  0  0  0  0  0  0  0  0  0  0  0
    5.0079    0.3450   -0.5634 C   0  0  0  0  0  0  0  0  0  0  0  0
    7.3755    0.6302    0.0068 C   0  0  0  0  0  0  0  0  0  0  0  0
    8.2339    1.1384    0.6754 C   0  0  0  0  0  0  0  0  0  0  0  0
   -2.9298   -6.6503   -0.6775 H   0  0  0  0  0  0  0  0  0  0  0  0
   -4.2334   -5.4715   -0.9391 H   0  0  0  0  0  0  0  0  0  0  0  0
   -3.6638   -5.8391    0.7227 H   0  0  0  0  0  0  0  0  0  0  0  0
   -3.7432   -3.1376   -0.5891 H   0  0  0  0  0  0  0  0  0  0  0  0
   -3.2013   -3.5047    1.0575 H   0  0  0  0  0  0  0  0  0  0  0  0
   -1.4496   -2.3304   -1.1602 H   0  0  0  0  0  0  0  0  0  0  0  0
   -0.9227   -2.6819    0.5078 H   0  0  0  0  0  0  0  0  0  0  0  0
    0.3145   -0.9931   -0.4857 H   0  0  0  0  0  0  0  0  0  0  0  0
   -1.5835    3.2570    1.1654 H   0  0  0  0  0  0  0  0  0  0  0  0
   -3.8866    3.0886    0.8975 H   0  0  0  0  0  0  0  0  0  0  0  0
   -3.3502    2.6887    2.5510 H   0  0  0  0  0  0  0  0  0  0  0  0
   -5.9094    1.5951    1.2450 H   0  0  0  0  0  0  0  0  0  0  0  0
   -5.3299    1.2384    2.8585 H   0  0  0  0  0  0  0  0  0  0  0  0
   -5.7085    4.4508    1.0285 H   0  0  0  0  0  0  0  0  0  0  0  0
   -7.2329    3.5053    1.0015 H   0  0  0  0  0  0  0  0  0  0  0  0
   -7.0297    4.8513    2.1403 H   0  0  0  0  0  0  0  0  0  0  0  0
    2.6599    4.3101    0.0789 H   0  0  0  0  0  0  0  0  0  0  0  0
    2.0452   -0.3144   -1.8688 H   0  0  0  0  0  0  0  0  0  0  0  0
    3.5904   -1.6709   -2.9038 H   0  0  0  0  0  0  0  0  0  0  0  0
    5.9535   -2.2231   -3.3043 H   0  0  0  0  0  0  0  0  0  0  0  0
    7.7346   -1.1467   -1.9631 H   0  0  0  0  0  0  0  0  0  0  0  0
    4.7602    1.0409    0.2338 H   0  0  0  0  0  0  0  0  0  0  0  0
    8.9930    1.5907    1.2698 H   0  0  0  0  0  0  0  0  0  0  0  0
  1  2  1  0
  2  3  1  0
  3  4  1  0
  4  5  1  0
  5  6  1  0
  6  7  2  0
  7  8  1  0
  8  9  2  0
  9 10  1  0
 10 11  2  0
 11 12  1  0
 12 13  1  0
 13 14  1  0
 14 15  1  0
 15 16  1  0
  9 17  1  0
 17 18  2  0
 18 19  1  0
 19 20  2  0
 20 21  1  0
 21 22  1  0
 22 23  2  0
 23 24  1  0
 24 25  2  0
 25 26  1  0
 26 27  2  0
 26 28  1  0
 28 29  3  0
 11  6  1  0
 20  8  1  0
 27 22  1  0
  1 30  1  0
  1 31  1  0
  1 32  1  0
  3 33  1  0
  3 34  1  0
  4 35  1  0
  4 36  1  0
  7 37  1  0
 10 38  1  0
 13 39  1  0
 13 40  1  0
 14 41  1  0
 14 42  1  0
 16 43  1  0
 16 44  1  0
 16 45  1  0
 18 46  1  0
 21 47  1  0
 23 48  1  0
 24 49  1  0
 25 50  1  0
 27 51  1  0
 29 52  1  0
M  END
>  <energy_abs>  (169) 
56.65813660042435

>  <SMILES>  (169) 
COCCOc1cc2c(cc1OCCOC)ncnc2Nc3cccc(c3)C#C

>  <cluster_no>  (169) 
169

>  <fda_drugs_id>  (169) 
AAKJLRGGTJKAMG-UHFFFAOYSA-N

>  <initial_conformation_id>  (169) 
131

>  <minimize_method>  (169) 
MMFF

$$$$

     RDKit          3D

 52 54  0  0  0  0  0  0  0  0999 V2000
   -0.8085   -4.8322   -1.5701 C   0  0  0  0  0  0  0  0  0  0  0  0
   -0.7719   -4.1774   -0.3085 O   0  0  0  0  0  0  0  0  0  0  0  0
   -1.5236   -2.9647   -0.3237 C   0  0  0  0  0  0  0  0  0  0  0  0
   -1.5071   -2.3432    1.0705 C   0  0  0  0  0  0  0  0  0  0  0  0
   -2.1739   -1.0831    1.0799 O   0  0  0  0  0  0  0  0  0  0  0  0
   -1.4686    0.0574    0.7976 C   0  0  0  0  0  0  0  0  0  0  0  0
   -0.1306    0.0963    0.4027 C   0  0  0  0  0  0  0  0  0  0  0  0
    0.5166    1.3280    0.1199 C   0  0  0  0  0  0  0  0  0  0  0  0
   -0.1969    2.5243    0.2565 C   0  0  0  0  0  0  0  0  0  0  0  0
   -1.5286    2.4734    0.6468 C   0  0  0  0  0  0  0  0  0  0  0  0
   -2.1774    1.2633    0.9157 C   0  0  0  0  0  0  0  0  0  0  0  0
   -3.4914    1.1534    1.2967 O   0  0  0  0  0  0  0  0  0  0  0  0
   -4.2376    2.3543    1.4834 C   0  0  0  0  0  0  0  0  0  0  0  0
   -5.6421    1.9807    1.9569 C   0  0  0  0  0  0  0  0  0  0  0  0
   -6.4505    3.1317    2.2030 O   0  0  0  0  0  0  0  0  0  0  0  0
   -7.0498    3.6516    1.0237 C   0  0  0  0  0  0  0  0  0  0  0  0
    0.3477    3.7211    0.0247 N   0  0  0  0  0  0  0  0  0  0  0  0
    1.6333    3.7366   -0.3406 C   0  0  0  0  0  0  0  0  0  0  0  0
    2.4164    2.6695   -0.5096 N   0  0  0  0  0  0  0  0  0  0  0  0
    1.8600    1.4650   -0.2903 C   0  0  0  0  0  0  0  0  0  0  0  0
    2.6364    0.2912   -0.4930 N   0  0  0  0  0  0  0  0  0  0  0  0
    4.0382    0.1749   -0.6375 C   0  0  0  0  0  0  0  0  0  0  0  0
    4.9383    1.0672   -0.0426 C   0  0  0  0  0  0  0  0  0  0  0  0
    6.3198    0.8800   -0.1498 C   0  0  0  0  0  0  0  0  0  0  0  0
    6.8239   -0.2230   -0.8350 C   0  0  0  0  0  0  0  0  0  0  0  0
    5.9451   -1.1445   -1.4015 C   0  0  0  0  0  0  0  0  0  0  0  0
    4.5632   -0.9520   -1.2913 C   0  0  0  0  0  0  0  0  0  0  0  0
    6.4549   -2.2913   -2.0893 C   0  0  0  0  0  0  0  0  0  0  0  0
    6.8832   -3.2537   -2.6658 C   0  0  0  0  0  0  0  0  0  0  0  0
   -0.2130   -5.7464   -1.5008 H   0  0  0  0  0  0  0  0  0  0  0  0
   -0.3778   -4.1921   -2.3462 H   0  0  0  0  0  0  0  0  0  0  0  0
   -1.8360   -5.1030   -1.8312 H   0  0  0  0  0  0  0  0  0  0  0  0
   -2.5594   -3.1644   -0.6241 H   0  0  0  0  0  0  0  0  0  0  0  0
   -1.0935   -2.2774   -1.0607 H   0  0  0  0  0  0  0  0  0  0  0  0
   -0.5014   -2.2973    1.5044 H   0  0  0  0  0  0  0  0  0  0  0  0
   -2.0654   -3.0029    1.7463 H   0  0  0  0  0  0  0  0  0  0  0  0
    0.4461   -0.8182    0.3157 H   0  0  0  0  0  0  0  0  0  0  0  0
   -2.0486    3.4223    0.7361 H   0  0  0  0  0  0  0  0  0  0  0  0
   -3.7661    2.9936    2.2400 H   0  0  0  0  0  0  0  0  0  0  0  0
   -4.2997    2.9085    0.5403 H   0  0  0  0  0  0  0  0  0  0  0  0
   -6.1327    1.2987    1.2515 H   0  0  0  0  0  0  0  0  0  0  0  0
   -5.5618    1.4309    2.9018 H   0  0  0  0  0  0  0  0  0  0  0  0
   -6.2905    3.9987    0.3180 H   0  0  0  0  0  0  0  0  0  0  0  0
   -7.6734    4.5045    1.3050 H   0  0  0  0  0  0  0  0  0  0  0  0
   -7.6871    2.8973    0.5522 H   0  0  0  0  0  0  0  0  0  0  0  0
    2.0818    4.7077   -0.5199 H   0  0  0  0  0  0  0  0  0  0  0  0
    2.1487   -0.3160   -1.1432 H   0  0  0  0  0  0  0  0  0  0  0  0
    4.5748    1.9221    0.5214 H   0  0  0  0  0  0  0  0  0  0  0  0
    6.9984    1.5935    0.3101 H   0  0  0  0  0  0  0  0  0  0  0  0
    7.8990   -0.3634   -0.9129 H   0  0  0  0  0  0  0  0  0  0  0  0
    3.8936   -1.6907   -1.7246 H   0  0  0  0  0  0  0  0  0  0  0  0
    7.2656   -4.1069   -3.1759 H   0  0  0  0  0  0  0  0  0  0  0  0
  1  2  1  0
  2  3  1  0
  3  4  1  0
  4  5  1  0
  5  6  1  0
  6  7  2  0
  7  8  1  0
  8  9  2  0
  9 10  1  0
 10 11  2  0
 11 12  1  0
 12 13  1  0
 13 14  1  0
 14 15  1  0
 15 16  1  0
  9 17  1  0
 17 18  2  0
 18 19  1  0
 19 20  2  0
 20 21  1  0
 21 22  1  0
 22 23  2  0
 23 24  1  0
 24 25  2  0
 25 26  1  0
 26 27  2  0
 26 28  1  0
 28 29  3  0
 11  6  1  0
 20  8  1  0
 27 22  1  0
  1 30  1  0
  1 31  1  0
  1 32  1  0
  3 33  1  0
  3 34  1  0
  4 35  1  0
  4 36  1  0
  7 37  1  0
 10 38  1  0
 13 39  1  0
 13 40  1  0
 14 41  1  0
 14 42  1  0
 16 43  1  0
 16 44  1  0
 16 45  1  0
 18 46  1  0
 21 47  1  0
 23 48  1  0
 24 49  1  0
 25 50  1  0
 27 51  1  0
 29 52  1  0
M  END
>  <energy_abs>  (170) 
58.81003569097571

>  <SMILES>  (170) 
COCCOc1cc2c(cc1OCCOC)ncnc2Nc3cccc(c3)C#C

>  <cluster_no>  (170) 
170

>  <fda_drugs_id>  (170) 
AAKJLRGGTJKAMG-UHFFFAOYSA-N

>  <initial_conformation_id>  (170) 
130

>  <minimize_method>  (170) 
MMFF

$$$$

     RDKit          3D

 52 54  0  0  0  0  0  0  0  0999 V2000
   -3.2829   -5.1907    0.1498 C   0  0  0  0  0  0  0  0  0  0  0  0
   -2.3676   -4.1028    0.1603 O   0  0  0  0  0  0  0  0  0  0  0  0
   -2.4337   -3.3715    1.3919 C   0  0  0  0  0  0  0  0  0  0  0  0
   -1.4549   -2.1982    1.3373 C   0  0  0  0  0  0  0  0  0  0  0  0
   -1.9974   -1.1894    0.4691 O   0  0  0  0  0  0  0  0  0  0  0  0
   -1.3311   -0.0019    0.5850 C   0  0  0  0  0  0  0  0  0  0  0  0
    0.0065    0.1099    0.2106 C   0  0  0  0  0  0  0  0  0  0  0  0
    0.6859    1.3507    0.3217 C   0  0  0  0  0  0  0  0  0  0  0  0
    0.0016    2.4701    0.8199 C   0  0  0  0  0  0  0  0  0  0  0  0
   -1.3361    2.3386    1.1655 C   0  0  0  0  0  0  0  0  0  0  0  0
   -2.0127    1.1286    1.0261 C   0  0  0  0  0  0  0  0  0  0  0  0
   -3.3274    1.1031    1.4079 O   0  0  0  0  0  0  0  0  0  0  0  0
   -4.1957    0.8750    0.2819 C   0  0  0  0  0  0  0  0  0  0  0  0
   -5.5442    1.5307    0.5674 C   0  0  0  0  0  0  0  0  0  0  0  0
   -5.4107    2.9588    0.4804 O   0  0  0  0  0  0  0  0  0  0  0  0
   -6.6336    3.6209    0.7696 C   0  0  0  0  0  0  0  0  0  0  0  0
    0.5835    3.6628    0.9682 N   0  0  0  0  0  0  0  0  0  0  0  0
    1.8695    3.7536    0.6211 C   0  0  0  0  0  0  0  0  0  0  0  0
    2.6249    2.7673    0.1355 N   0  0  0  0  0  0  0  0  0  0  0  0
    2.0349    1.5676   -0.0253 C   0  0  0  0  0  0  0  0  0  0  0  0
    2.7812    0.4876   -0.5720 N   0  0  0  0  0  0  0  0  0  0  0  0
    4.1805    0.3854   -0.7503 C   0  0  0  0  0  0  0  0  0  0  0  0
    5.0996    1.0339    0.0831 C   0  0  0  0  0  0  0  0  0  0  0  0
    6.4765    0.8539   -0.0785 C   0  0  0  0  0  0  0  0  0  0  0  0
    6.9564   -0.0045   -1.0640 C   0  0  0  0  0  0  0  0  0  0  0  0
    6.0578   -0.6937   -1.8760 C   0  0  0  0  0  0  0  0  0  0  0  0
    4.6805   -0.5072   -1.7118 C   0  0  0  0  0  0  0  0  0  0  0  0
    6.5448   -1.6050   -2.8631 C   0  0  0  0  0  0  0  0  0  0  0  0
    6.9627   -2.3791   -3.6820 C   0  0  0  0  0  0  0  0  0  0  0  0
   -4.3081   -4.8280    0.2249 H   0  0  0  0  0  0  0  0  0  0  0  0
   -3.1668   -5.7272   -0.7950 H   0  0  0  0  0  0  0  0  0  0  0  0
   -3.0682   -5.8817    0.9716 H   0  0  0  0  0  0  0  0  0  0  0  0
   -2.1553   -4.0414    2.2139 H   0  0  0  0  0  0  0  0  0  0  0  0
   -3.4582   -3.0083    1.5422 H   0  0  0  0  0  0  0  0  0  0  0  0
   -1.3282   -1.7909    2.3497 H   0  0  0  0  0  0  0  0  0  0  0  0
   -0.4892   -2.5413    0.9462 H   0  0  0  0  0  0  0  0  0  0  0  0
    0.5263   -0.7681   -0.1683 H   0  0  0  0  0  0  0  0  0  0  0  0
   -1.8748    3.2035    1.5392 H   0  0  0  0  0  0  0  0  0  0  0  0
   -3.7732    1.2952   -0.6407 H   0  0  0  0  0  0  0  0  0  0  0  0
   -4.3416   -0.2063    0.1671 H   0  0  0  0  0  0  0  0  0  0  0  0
   -5.8872    1.2591    1.5716 H   0  0  0  0  0  0  0  0  0  0  0  0
   -6.2791    1.1987   -0.1761 H   0  0  0  0  0  0  0  0  0  0  0  0
   -6.4612    4.6992    0.7158 H   0  0  0  0  0  0  0  0  0  0  0  0
   -6.9762    3.3713    1.7785 H   0  0  0  0  0  0  0  0  0  0  0  0
   -7.3973    3.3497    0.0333 H   0  0  0  0  0  0  0  0  0  0  0  0
    2.3437    4.7228    0.7398 H   0  0  0  0  0  0  0  0  0  0  0  0
    2.2806    0.1238   -1.3757 H   0  0  0  0  0  0  0  0  0  0  0  0
    4.7548    1.6869    0.8785 H   0  0  0  0  0  0  0  0  0  0  0  0
    7.1693    1.3778    0.5727 H   0  0  0  0  0  0  0  0  0  0  0  0
    8.0282   -0.1432   -1.1818 H   0  0  0  0  0  0  0  0  0  0  0  0
    3.9950   -1.0663   -2.3436 H   0  0  0  0  0  0  0  0  0  0  0  0
    7.3401   -3.0695   -4.4029 H   0  0  0  0  0  0  0  0  0  0  0  0
  1  2  1  0
  2  3  1  0
  3  4  1  0
  4  5  1  0
  5  6  1  0
  6  7  2  0
  7  8  1  0
  8  9  2  0
  9 10  1  0
 10 11  2  0
 11 12  1  0
 12 13  1  0
 13 14  1  0
 14 15  1  0
 15 16  1  0
  9 17  1  0
 17 18  2  0
 18 19  1  0
 19 20  2  0
 20 21  1  0
 21 22  1  0
 22 23  2  0
 23 24  1  0
 24 25  2  0
 25 26  1  0
 26 27  2  0
 26 28  1  0
 28 29  3  0
 11  6  1  0
 20  8  1  0
 27 22  1  0
  1 30  1  0
  1 31  1  0
  1 32  1  0
  3 33  1  0
  3 34  1  0
  4 35  1  0
  4 36  1  0
  7 37  1  0
 10 38  1  0
 13 39  1  0
 13 40  1  0
 14 41  1  0
 14 42  1  0
 16 43  1  0
 16 44  1  0
 16 45  1  0
 18 46  1  0
 21 47  1  0
 23 48  1  0
 24 49  1  0
 25 50  1  0
 27 51  1  0
 29 52  1  0
M  END
>  <energy_abs>  (171) 
58.17512203039498

>  <SMILES>  (171) 
COCCOc1cc2c(cc1OCCOC)ncnc2Nc3cccc(c3)C#C

>  <cluster_no>  (171) 
171

>  <fda_drugs_id>  (171) 
AAKJLRGGTJKAMG-UHFFFAOYSA-N

>  <initial_conformation_id>  (171) 
129

>  <minimize_method>  (171) 
MMFF

$$$$

     RDKit          3D

 52 54  0  0  0  0  0  0  0  0999 V2000
    0.0598   -4.5365    0.1661 C   0  0  0  0  0  0  0  0  0  0  0  0
   -0.4850   -3.2546    0.4448 O   0  0  0  0  0  0  0  0  0  0  0  0
   -1.9225   -3.2840    0.4030 C   0  0  0  0  0  0  0  0  0  0  0  0
   -2.4768   -1.8932    0.7049 C   0  0  0  0  0  0  0  0  0  0  0  0
   -2.1940   -1.0275   -0.4112 O   0  0  0  0  0  0  0  0  0  0  0  0
   -1.5431    0.1006    0.0200 C   0  0  0  0  0  0  0  0  0  0  0  0
   -0.1641    0.1462   -0.1590 C   0  0  0  0  0  0  0  0  0  0  0  0
    0.5866    1.2404    0.3291 C   0  0  0  0  0  0  0  0  0  0  0  0
   -0.0922    2.3048    0.9453 C   0  0  0  0  0  0  0  0  0  0  0  0
   -1.4801    2.2586    1.0624 C   0  0  0  0  0  0  0  0  0  0  0  0
   -2.2251    1.1674    0.6087 C   0  0  0  0  0  0  0  0  0  0  0  0
   -3.5815    1.0320    0.7173 O   0  0  0  0  0  0  0  0  0  0  0  0
   -4.3326    2.1748    1.1192 C   0  0  0  0  0  0  0  0  0  0  0  0
   -5.8162    1.8067    1.0840 C   0  0  0  0  0  0  0  0  0  0  0  0
   -6.6622    2.8614    1.5372 O   0  0  0  0  0  0  0  0  0  0  0  0
   -6.8292    3.9005    0.5821 C   0  0  0  0  0  0  0  0  0  0  0  0
    0.5393    3.3701    1.4373 N   0  0  0  0  0  0  0  0  0  0  0  0
    1.8699    3.3818    1.3186 C   0  0  0  0  0  0  0  0  0  0  0  0
    2.6250    2.4339    0.7573 N   0  0  0  0  0  0  0  0  0  0  0  0
    1.9932    1.3560    0.2659 C   0  0  0  0  0  0  0  0  0  0  0  0
    2.7376    0.3326   -0.3761 N   0  0  0  0  0  0  0  0  0  0  0  0
    4.0979    0.2461   -0.7393 C   0  0  0  0  0  0  0  0  0  0  0  0
    4.9823    1.3299   -0.7265 C   0  0  0  0  0  0  0  0  0  0  0  0
    6.3029    1.1947   -1.1662 C   0  0  0  0  0  0  0  0  0  0  0  0
    6.7540   -0.0269   -1.6635 C   0  0  0  0  0  0  0  0  0  0  0  0
    5.8823   -1.1122   -1.7177 C   0  0  0  0  0  0  0  0  0  0  0  0
    4.5675   -0.9728   -1.2602 C   0  0  0  0  0  0  0  0  0  0  0  0
    6.3268   -2.3635   -2.2529 C   0  0  0  0  0  0  0  0  0  0  0  0
    6.6985   -3.4129   -2.7011 C   0  0  0  0  0  0  0  0  0  0  0  0
   -0.2235   -5.2463    0.9510 H   0  0  0  0  0  0  0  0  0  0  0  0
   -0.2793   -4.8963   -0.8108 H   0  0  0  0  0  0  0  0  0  0  0  0
    1.1502   -4.4586    0.1440 H   0  0  0  0  0  0  0  0  0  0  0  0
   -2.2433   -3.6123   -0.5966 H   0  0  0  0  0  0  0  0  0  0  0  0
   -2.2872   -3.9898    1.1583 H   0  0  0  0  0  0  0  0  0  0  0  0
   -3.5688   -1.9467    0.8111 H   0  0  0  0  0  0  0  0  0  0  0  0
   -2.0546   -1.5185    1.6543 H   0  0  0  0  0  0  0  0  0  0  0  0
    0.3112   -0.6976   -0.6544 H   0  0  0  0  0  0  0  0  0  0  0  0
   -1.9602    3.1041    1.5469 H   0  0  0  0  0  0  0  0  0  0  0  0
   -4.1383    3.0087    0.4389 H   0  0  0  0  0  0  0  0  0  0  0  0
   -4.0638    2.4760    2.1369 H   0  0  0  0  0  0  0  0  0  0  0  0
   -5.9799    0.9563    1.7548 H   0  0  0  0  0  0  0  0  0  0  0  0
   -6.1211    1.4618    0.0892 H   0  0  0  0  0  0  0  0  0  0  0  0
   -7.5802    4.5999    0.9636 H   0  0  0  0  0  0  0  0  0  0  0  0
   -7.1828    3.5006   -0.3748 H   0  0  0  0  0  0  0  0  0  0  0  0
   -5.8952    4.4511    0.4419 H   0  0  0  0  0  0  0  0  0  0  0  0
    2.3868    4.2441    1.7206 H   0  0  0  0  0  0  0  0  0  0  0  0
    2.3517   -0.5767   -0.1629 H   0  0  0  0  0  0  0  0  0  0  0  0
    4.6655    2.3107   -0.3805 H   0  0  0  0  0  0  0  0  0  0  0  0
    6.9712    2.0533   -1.1362 H   0  0  0  0  0  0  0  0  0  0  0  0
    7.7778   -0.1169   -2.0165 H   0  0  0  0  0  0  0  0  0  0  0  0
    3.8966   -1.8311   -1.3231 H   0  0  0  0  0  0  0  0  0  0  0  0
    7.0285   -4.3427   -3.0955 H   0  0  0  0  0  0  0  0  0  0  0  0
  1  2  1  0
  2  3  1  0
  3  4  1  0
  4  5  1  0
  5  6  1  0
  6  7  2  0
  7  8  1  0
  8  9  2  0
  9 10  1  0
 10 11  2  0
 11 12  1  0
 12 13  1  0
 13 14  1  0
 14 15  1  0
 15 16  1  0
  9 17  1  0
 17 18  2  0
 18 19  1  0
 19 20  2  0
 20 21  1  0
 21 22  1  0
 22 23  2  0
 23 24  1  0
 24 25  2  0
 25 26  1  0
 26 27  2  0
 26 28  1  0
 28 29  3  0
 11  6  1  0
 20  8  1  0
 27 22  1  0
  1 30  1  0
  1 31  1  0
  1 32  1  0
  3 33  1  0
  3 34  1  0
  4 35  1  0
  4 36  1  0
  7 37  1  0
 10 38  1  0
 13 39  1  0
 13 40  1  0
 14 41  1  0
 14 42  1  0
 16 43  1  0
 16 44  1  0
 16 45  1  0
 18 46  1  0
 21 47  1  0
 23 48  1  0
 24 49  1  0
 25 50  1  0
 27 51  1  0
 29 52  1  0
M  END
>  <energy_abs>  (172) 
58.37038769552194

>  <SMILES>  (172) 
COCCOc1cc2c(cc1OCCOC)ncnc2Nc3cccc(c3)C#C

>  <cluster_no>  (172) 
172

>  <fda_drugs_id>  (172) 
AAKJLRGGTJKAMG-UHFFFAOYSA-N

>  <initial_conformation_id>  (172) 
128

>  <minimize_method>  (172) 
MMFF

$$$$

     RDKit          3D

 52 54  0  0  0  0  0  0  0  0999 V2000
   -4.5848   -3.2315    2.2989 C   0  0  0  0  0  0  0  0  0  0  0  0
   -3.6987   -3.2449    1.1907 O   0  0  0  0  0  0  0  0  0  0  0  0
   -2.3736   -2.8651    1.5731 C   0  0  0  0  0  0  0  0  0  0  0  0
   -1.4747   -2.7650    0.3386 C   0  0  0  0  0  0  0  0  0  0  0  0
   -1.8497   -1.6724   -0.5183 O   0  0  0  0  0  0  0  0  0  0  0  0
   -1.2906   -0.4813   -0.1322 C   0  0  0  0  0  0  0  0  0  0  0  0
    0.0637   -0.2505   -0.3647 C   0  0  0  0  0  0  0  0  0  0  0  0
    0.6471    0.9921   -0.0242 C   0  0  0  0  0  0  0  0  0  0  0  0
   -0.1583    1.9934    0.5372 C   0  0  0  0  0  0  0  0  0  0  0  0
   -1.5128    1.7468    0.7353 C   0  0  0  0  0  0  0  0  0  0  0  0
   -2.0983    0.5226    0.4092 C   0  0  0  0  0  0  0  0  0  0  0  0
   -3.4193    0.2111    0.5707 O   0  0  0  0  0  0  0  0  0  0  0  0
   -4.2494    1.0780    1.3372 C   0  0  0  0  0  0  0  0  0  0  0  0
   -4.9538    2.0950    0.4432 C   0  0  0  0  0  0  0  0  0  0  0  0
   -5.8173    2.9511    1.1910 O   0  0  0  0  0  0  0  0  0  0  0  0
   -5.1361    4.0575    1.7702 C   0  0  0  0  0  0  0  0  0  0  0  0
    0.3194    3.1872    0.8925 N   0  0  0  0  0  0  0  0  0  0  0  0
    1.6266    3.3926    0.6988 C   0  0  0  0  0  0  0  0  0  0  0  0
    2.4937    2.5209    0.1781 N   0  0  0  0  0  0  0  0  0  0  0  0
    2.0066    1.3250   -0.1952 C   0  0  0  0  0  0  0  0  0  0  0  0
    2.8787    0.3682   -0.7837 N   0  0  0  0  0  0  0  0  0  0  0  0
    4.2929    0.3732   -0.8193 C   0  0  0  0  0  0  0  0  0  0  0  0
    5.0743    0.9537    0.1894 C   0  0  0  0  0  0  0  0  0  0  0  0
    6.4710    0.8842    0.1550 C   0  0  0  0  0  0  0  0  0  0  0  0
    7.1091    0.2072   -0.8823 C   0  0  0  0  0  0  0  0  0  0  0  0
    6.3492   -0.4130   -1.8741 C   0  0  0  0  0  0  0  0  0  0  0  0
    4.9510   -0.3417   -1.8332 C   0  0  0  0  0  0  0  0  0  0  0  0
    7.0000   -1.1243   -2.9323 C   0  0  0  0  0  0  0  0  0  0  0  0
    7.5529   -1.7156   -3.8203 C   0  0  0  0  0  0  0  0  0  0  0  0
   -4.2599   -3.9553    3.0526 H   0  0  0  0  0  0  0  0  0  0  0  0
   -4.6377   -2.2301    2.7366 H   0  0  0  0  0  0  0  0  0  0  0  0
   -5.5802   -3.5123    1.9526 H   0  0  0  0  0  0  0  0  0  0  0  0
   -1.9784   -3.6338    2.2463 H   0  0  0  0  0  0  0  0  0  0  0  0
   -2.3992   -1.9121    2.1068 H   0  0  0  0  0  0  0  0  0  0  0  0
   -1.5856   -3.6771   -0.2654 H   0  0  0  0  0  0  0  0  0  0  0  0
   -0.4236   -2.6983    0.6381 H   0  0  0  0  0  0  0  0  0  0  0  0
    0.6628   -1.0417   -0.8087 H   0  0  0  0  0  0  0  0  0  0  0  0
   -2.1016    2.5585    1.1506 H   0  0  0  0  0  0  0  0  0  0  0  0
   -5.0119    0.4477    1.8088 H   0  0  0  0  0  0  0  0  0  0  0  0
   -3.7183    1.5378    2.1766 H   0  0  0  0  0  0  0  0  0  0  0  0
   -5.5751    1.5557   -0.2836 H   0  0  0  0  0  0  0  0  0  0  0  0
   -4.2424    2.6809   -0.1504 H   0  0  0  0  0  0  0  0  0  0  0  0
   -4.3808    3.7240    2.4882 H   0  0  0  0  0  0  0  0  0  0  0  0
   -4.6715    4.6690    0.9894 H   0  0  0  0  0  0  0  0  0  0  0  0
   -5.8698    4.6713    2.3008 H   0  0  0  0  0  0  0  0  0  0  0  0
    2.0203    4.3592    0.9911 H   0  0  0  0  0  0  0  0  0  0  0  0
    2.4890    0.0779   -1.6746 H   0  0  0  0  0  0  0  0  0  0  0  0
    4.6032    1.4667    1.0247 H   0  0  0  0  0  0  0  0  0  0  0  0
    7.0560    1.3527    0.9440 H   0  0  0  0  0  0  0  0  0  0  0  0
    8.1955    0.1586   -0.9055 H   0  0  0  0  0  0  0  0  0  0  0  0
    4.3753   -0.8459   -2.6051 H   0  0  0  0  0  0  0  0  0  0  0  0
    8.0446   -2.2392   -4.6065 H   0  0  0  0  0  0  0  0  0  0  0  0
  1  2  1  0
  2  3  1  0
  3  4  1  0
  4  5  1  0
  5  6  1  0
  6  7  2  0
  7  8  1  0
  8  9  2  0
  9 10  1  0
 10 11  2  0
 11 12  1  0
 12 13  1  0
 13 14  1  0
 14 15  1  0
 15 16  1  0
  9 17  1  0
 17 18  2  0
 18 19  1  0
 19 20  2  0
 20 21  1  0
 21 22  1  0
 22 23  2  0
 23 24  1  0
 24 25  2  0
 25 26  1  0
 26 27  2  0
 26 28  1  0
 28 29  3  0
 11  6  1  0
 20  8  1  0
 27 22  1  0
  1 30  1  0
  1 31  1  0
  1 32  1  0
  3 33  1  0
  3 34  1  0
  4 35  1  0
  4 36  1  0
  7 37  1  0
 10 38  1  0
 13 39  1  0
 13 40  1  0
 14 41  1  0
 14 42  1  0
 16 43  1  0
 16 44  1  0
 16 45  1  0
 18 46  1  0
 21 47  1  0
 23 48  1  0
 24 49  1  0
 25 50  1  0
 27 51  1  0
 29 52  1  0
M  END
>  <energy_abs>  (173) 
62.786416688104666

>  <SMILES>  (173) 
COCCOc1cc2c(cc1OCCOC)ncnc2Nc3cccc(c3)C#C

>  <cluster_no>  (173) 
173

>  <fda_drugs_id>  (173) 
AAKJLRGGTJKAMG-UHFFFAOYSA-N

>  <initial_conformation_id>  (173) 
127

>  <minimize_method>  (173) 
MMFF

$$$$

     RDKit          3D

 52 54  0  0  0  0  0  0  0  0999 V2000
   -0.4289   -3.3878   -2.0483 C   0  0  0  0  0  0  0  0  0  0  0  0
   -0.4141   -2.6969   -0.8053 O   0  0  0  0  0  0  0  0  0  0  0  0
   -1.5327   -3.0665    0.0116 C   0  0  0  0  0  0  0  0  0  0  0  0
   -1.5414   -2.2576    1.3115 C   0  0  0  0  0  0  0  0  0  0  0  0
   -2.2274   -1.0129    1.1516 O   0  0  0  0  0  0  0  0  0  0  0  0
   -1.5543    0.1058    0.7440 C   0  0  0  0  0  0  0  0  0  0  0  0
   -0.2054    0.1462    0.3984 C   0  0  0  0  0  0  0  0  0  0  0  0
    0.4054    1.3424   -0.0553 C   0  0  0  0  0  0  0  0  0  0  0  0
   -0.3508    2.5175   -0.1150 C   0  0  0  0  0  0  0  0  0  0  0  0
   -1.6913    2.4722    0.2464 C   0  0  0  0  0  0  0  0  0  0  0  0
   -2.3074    1.2879    0.6681 C   0  0  0  0  0  0  0  0  0  0  0  0
   -3.6302    1.1834    1.0212 O   0  0  0  0  0  0  0  0  0  0  0  0
   -4.4162    2.3757    1.0391 C   0  0  0  0  0  0  0  0  0  0  0  0
   -5.8395    2.0312    1.4914 C   0  0  0  0  0  0  0  0  0  0  0  0
   -5.9245    1.5531    2.8373 O   0  0  0  0  0  0  0  0  0  0  0  0
   -5.6859    2.5509    3.8181 C   0  0  0  0  0  0  0  0  0  0  0  0
    0.1614    3.6857   -0.5113 N   0  0  0  0  0  0  0  0  0  0  0  0
    1.4536    3.6880   -0.8551 C   0  0  0  0  0  0  0  0  0  0  0  0
    2.2735    2.6346   -0.8527 N   0  0  0  0  0  0  0  0  0  0  0  0
    1.7497    1.4573   -0.4671 C   0  0  0  0  0  0  0  0  0  0  0  0
    2.5597    0.2884   -0.4813 N   0  0  0  0  0  0  0  0  0  0  0  0
    3.9582    0.1737   -0.6444 C   0  0  0  0  0  0  0  0  0  0  0  0
    4.8545    1.1788   -0.2625 C   0  0  0  0  0  0  0  0  0  0  0  0
    6.2363    0.9986   -0.3795 C   0  0  0  0  0  0  0  0  0  0  0  0
    6.7456   -0.2059   -0.8592 C   0  0  0  0  0  0  0  0  0  0  0  0
    5.8722   -1.2338   -1.2096 C   0  0  0  0  0  0  0  0  0  0  0  0
    4.4903   -1.0476   -1.0904 C   0  0  0  0  0  0  0  0  0  0  0  0
    6.3877   -2.4812   -1.6855 C   0  0  0  0  0  0  0  0  0  0  0  0
    6.8206   -3.5268   -2.0868 C   0  0  0  0  0  0  0  0  0  0  0  0
   -1.3284   -3.1338   -2.6171 H   0  0  0  0  0  0  0  0  0  0  0  0
   -0.3761   -4.4686   -1.8866 H   0  0  0  0  0  0  0  0  0  0  0  0
    0.4471   -3.0770   -2.6238 H   0  0  0  0  0  0  0  0  0  0  0  0
   -1.4356   -4.1310    0.2525 H   0  0  0  0  0  0  0  0  0  0  0  0
   -2.4620   -2.9010   -0.5454 H   0  0  0  0  0  0  0  0  0  0  0  0
   -2.1338   -2.8141    2.0468 H   0  0  0  0  0  0  0  0  0  0  0  0
   -0.5455   -2.1325    1.7492 H   0  0  0  0  0  0  0  0  0  0  0  0
    0.4043   -0.7470    0.4681 H   0  0  0  0  0  0  0  0  0  0  0  0
   -2.2468    3.4020    0.1792 H   0  0  0  0  0  0  0  0  0  0  0  0
   -3.9679    3.1072    1.7189 H   0  0  0  0  0  0  0  0  0  0  0  0
   -4.4701    2.7926    0.0265 H   0  0  0  0  0  0  0  0  0  0  0  0
   -6.2304    1.2274    0.8580 H   0  0  0  0  0  0  0  0  0  0  0  0
   -6.5001    2.8977    1.3731 H   0  0  0  0  0  0  0  0  0  0  0  0
   -5.9219    2.1279    4.7986 H   0  0  0  0  0  0  0  0  0  0  0  0
   -6.3269    3.4222    3.6533 H   0  0  0  0  0  0  0  0  0  0  0  0
   -4.6342    2.8484    3.8231 H   0  0  0  0  0  0  0  0  0  0  0  0
    1.8759    4.6359   -1.1700 H   0  0  0  0  0  0  0  0  0  0  0  0
    2.0654   -0.4481   -0.9775 H   0  0  0  0  0  0  0  0  0  0  0  0
    4.4884    2.1189    0.1411 H   0  0  0  0  0  0  0  0  0  0  0  0
    6.9111    1.7987   -0.0872 H   0  0  0  0  0  0  0  0  0  0  0  0
    7.8208   -0.3395   -0.9461 H   0  0  0  0  0  0  0  0  0  0  0  0
    3.8237   -1.8660   -1.3521 H   0  0  0  0  0  0  0  0  0  0  0  0
    7.2065   -4.4534   -2.4426 H   0  0  0  0  0  0  0  0  0  0  0  0
  1  2  1  0
  2  3  1  0
  3  4  1  0
  4  5  1  0
  5  6  1  0
  6  7  2  0
  7  8  1  0
  8  9  2  0
  9 10  1  0
 10 11  2  0
 11 12  1  0
 12 13  1  0
 13 14  1  0
 14 15  1  0
 15 16  1  0
  9 17  1  0
 17 18  2  0
 18 19  1  0
 19 20  2  0
 20 21  1  0
 21 22  1  0
 22 23  2  0
 23 24  1  0
 24 25  2  0
 25 26  1  0
 26 27  2  0
 26 28  1  0
 28 29  3  0
 11  6  1  0
 20  8  1  0
 27 22  1  0
  1 30  1  0
  1 31  1  0
  1 32  1  0
  3 33  1  0
  3 34  1  0
  4 35  1  0
  4 36  1  0
  7 37  1  0
 10 38  1  0
 13 39  1  0
 13 40  1  0
 14 41  1  0
 14 42  1  0
 16 43  1  0
 16 44  1  0
 16 45  1  0
 18 46  1  0
 21 47  1  0
 23 48  1  0
 24 49  1  0
 25 50  1  0
 27 51  1  0
 29 52  1  0
M  END
>  <energy_abs>  (174) 
60.800404494276016

>  <SMILES>  (174) 
COCCOc1cc2c(cc1OCCOC)ncnc2Nc3cccc(c3)C#C

>  <cluster_no>  (174) 
174

>  <fda_drugs_id>  (174) 
AAKJLRGGTJKAMG-UHFFFAOYSA-N

>  <initial_conformation_id>  (174) 
126

>  <minimize_method>  (174) 
MMFF

$$$$

     RDKit          3D

 52 54  0  0  0  0  0  0  0  0999 V2000
   -4.3522   -5.1904   -0.4040 C   0  0  0  0  0  0  0  0  0  0  0  0
   -3.5682   -4.1423    0.1513 O   0  0  0  0  0  0  0  0  0  0  0  0
   -3.3206   -3.1116   -0.8047 C   0  0  0  0  0  0  0  0  0  0  0  0
   -2.4766   -2.0154   -0.1640 C   0  0  0  0  0  0  0  0  0  0  0  0
   -2.2216   -1.0039   -1.1478 O   0  0  0  0  0  0  0  0  0  0  0  0
   -1.5089    0.0302   -0.5973 C   0  0  0  0  0  0  0  0  0  0  0  0
   -0.1422    0.0768   -0.8603 C   0  0  0  0  0  0  0  0  0  0  0  0
    0.6479    1.1331   -0.3520 C   0  0  0  0  0  0  0  0  0  0  0  0
    0.0379    2.1306    0.4214 C   0  0  0  0  0  0  0  0  0  0  0  0
   -1.3356    2.0733    0.6468 C   0  0  0  0  0  0  0  0  0  0  0  0
   -2.1305    1.0435    0.1371 C   0  0  0  0  0  0  0  0  0  0  0  0
   -3.4840    0.9268    0.2979 O   0  0  0  0  0  0  0  0  0  0  0  0
   -4.1962    1.9540    0.9851 C   0  0  0  0  0  0  0  0  0  0  0  0
   -4.2224    1.6989    2.4899 C   0  0  0  0  0  0  0  0  0  0  0  0
   -4.9410    2.7506    3.1332 O   0  0  0  0  0  0  0  0  0  0  0  0
   -5.0148    2.5485    4.5386 C   0  0  0  0  0  0  0  0  0  0  0  0
    0.7226    3.1447    0.9549 N   0  0  0  0  0  0  0  0  0  0  0  0
    2.0390    3.1715    0.7219 C   0  0  0  0  0  0  0  0  0  0  0  0
    2.7298    2.2878   -0.0015 N   0  0  0  0  0  0  0  0  0  0  0  0
    2.0370    1.2735   -0.5483 C   0  0  0  0  0  0  0  0  0  0  0  0
    2.7142    0.3202   -1.3570 N   0  0  0  0  0  0  0  0  0  0  0  0
    4.1057    0.1066   -1.4866 C   0  0  0  0  0  0  0  0  0  0  0  0
    4.5933   -0.5010   -2.6551 C   0  0  0  0  0  0  0  0  0  0  0  0
    5.9519   -0.7919   -2.8062 C   0  0  0  0  0  0  0  0  0  0  0  0
    6.8436   -0.5022   -1.7762 C   0  0  0  0  0  0  0  0  0  0  0  0
    6.3733    0.0664   -0.5930 C   0  0  0  0  0  0  0  0  0  0  0  0
    5.0117    0.3559   -0.4478 C   0  0  0  0  0  0  0  0  0  0  0  0
    7.2823    0.3437    0.4771 C   0  0  0  0  0  0  0  0  0  0  0  0
    8.0434    0.5766    1.3761 C   0  0  0  0  0  0  0  0  0  0  0  0
   -5.3242   -4.8096   -0.7312 H   0  0  0  0  0  0  0  0  0  0  0  0
   -4.5152   -5.9455    0.3694 H   0  0  0  0  0  0  0  0  0  0  0  0
   -3.8274   -5.6565   -1.2432 H   0  0  0  0  0  0  0  0  0  0  0  0
   -2.7950   -3.5250   -1.6737 H   0  0  0  0  0  0  0  0  0  0  0  0
   -4.2695   -2.6905   -1.1579 H   0  0  0  0  0  0  0  0  0  0  0  0
   -1.5311   -2.4434    0.1941 H   0  0  0  0  0  0  0  0  0  0  0  0
   -3.0109   -1.6108    0.7045 H   0  0  0  0  0  0  0  0  0  0  0  0
    0.3037   -0.7230   -1.4455 H   0  0  0  0  0  0  0  0  0  0  0  0
   -1.7623    2.8741    1.2433 H   0  0  0  0  0  0  0  0  0  0  0  0
   -5.2283    1.9247    0.6141 H   0  0  0  0  0  0  0  0  0  0  0  0
   -3.8432    2.9607    0.7320 H   0  0  0  0  0  0  0  0  0  0  0  0
   -3.2045    1.6483    2.8916 H   0  0  0  0  0  0  0  0  0  0  0  0
   -4.7054    0.7350    2.6908 H   0  0  0  0  0  0  0  0  0  0  0  0
   -5.5479    1.6200    4.7638 H   0  0  0  0  0  0  0  0  0  0  0  0
   -4.0119    2.5238    4.9755 H   0  0  0  0  0  0  0  0  0  0  0  0
   -5.5669    3.3834    4.9779 H   0  0  0  0  0  0  0  0  0  0  0  0
    2.5989    3.9909    1.1597 H   0  0  0  0  0  0  0  0  0  0  0  0
    2.2450    0.2629   -2.2551 H   0  0  0  0  0  0  0  0  0  0  0  0
    3.9164   -0.7517   -3.4680 H   0  0  0  0  0  0  0  0  0  0  0  0
    6.3116   -1.2497   -3.7239 H   0  0  0  0  0  0  0  0  0  0  0  0
    7.8995   -0.7312   -1.8962 H   0  0  0  0  0  0  0  0  0  0  0  0
    4.6607    0.7738    0.4920 H   0  0  0  0  0  0  0  0  0  0  0  0
    8.7162    0.7848    2.1749 H   0  0  0  0  0  0  0  0  0  0  0  0
  1  2  1  0
  2  3  1  0
  3  4  1  0
  4  5  1  0
  5  6  1  0
  6  7  2  0
  7  8  1  0
  8  9  2  0
  9 10  1  0
 10 11  2  0
 11 12  1  0
 12 13  1  0
 13 14  1  0
 14 15  1  0
 15 16  1  0
  9 17  1  0
 17 18  2  0
 18 19  1  0
 19 20  2  0
 20 21  1  0
 21 22  1  0
 22 23  2  0
 23 24  1  0
 24 25  2  0
 25 26  1  0
 26 27  2  0
 26 28  1  0
 28 29  3  0
 11  6  1  0
 20  8  1  0
 27 22  1  0
  1 30  1  0
  1 31  1  0
  1 32  1  0
  3 33  1  0
  3 34  1  0
  4 35  1  0
  4 36  1  0
  7 37  1  0
 10 38  1  0
 13 39  1  0
 13 40  1  0
 14 41  1  0
 14 42  1  0
 16 43  1  0
 16 44  1  0
 16 45  1  0
 18 46  1  0
 21 47  1  0
 23 48  1  0
 24 49  1  0
 25 50  1  0
 27 51  1  0
 29 52  1  0
M  END
>  <energy_abs>  (175) 
56.584452306496374

>  <SMILES>  (175) 
COCCOc1cc2c(cc1OCCOC)ncnc2Nc3cccc(c3)C#C

>  <cluster_no>  (175) 
175

>  <fda_drugs_id>  (175) 
AAKJLRGGTJKAMG-UHFFFAOYSA-N

>  <initial_conformation_id>  (175) 
125

>  <minimize_method>  (175) 
MMFF

$$$$

     RDKit          3D

 52 54  0  0  0  0  0  0  0  0999 V2000
   -4.2600   -2.5585   -0.9074 C   0  0  0  0  0  0  0  0  0  0  0  0
   -3.8485   -2.9069    0.4085 O   0  0  0  0  0  0  0  0  0  0  0  0
   -2.4703   -3.2759    0.5063 C   0  0  0  0  0  0  0  0  0  0  0  0
   -1.4866   -2.1388    0.2091 C   0  0  0  0  0  0  0  0  0  0  0  0
   -1.6441   -1.1009    1.1894 O   0  0  0  0  0  0  0  0  0  0  0  0
   -1.1279    0.1017    0.7872 C   0  0  0  0  0  0  0  0  0  0  0  0
    0.2171    0.1873    0.4077 C   0  0  0  0  0  0  0  0  0  0  0  0
    0.7855    1.4107   -0.0272 C   0  0  0  0  0  0  0  0  0  0  0  0
   -0.0168    2.5542   -0.0777 C   0  0  0  0  0  0  0  0  0  0  0  0
   -1.3371    2.4571    0.3391 C   0  0  0  0  0  0  0  0  0  0  0  0
   -1.9058    1.2596    0.7976 C   0  0  0  0  0  0  0  0  0  0  0  0
   -3.2094    1.4114    1.1809 O   0  0  0  0  0  0  0  0  0  0  0  0
   -3.8280    0.3647    1.9344 C   0  0  0  0  0  0  0  0  0  0  0  0
   -5.1175    0.9012    2.5589 C   0  0  0  0  0  0  0  0  0  0  0  0
   -6.1228    1.0663    1.5514 O   0  0  0  0  0  0  0  0  0  0  0  0
   -7.3214    1.5997    2.0967 C   0  0  0  0  0  0  0  0  0  0  0  0
    0.4387    3.7373   -0.4983 N   0  0  0  0  0  0  0  0  0  0  0  0
    1.7171    3.7886   -0.8830 C   0  0  0  0  0  0  0  0  0  0  0  0
    2.5817    2.7720   -0.8768 N   0  0  0  0  0  0  0  0  0  0  0  0
    2.1226    1.5862   -0.4389 C   0  0  0  0  0  0  0  0  0  0  0  0
    3.0125    0.4777   -0.3693 N   0  0  0  0  0  0  0  0  0  0  0  0
    4.2908    0.3546   -0.9626 C   0  0  0  0  0  0  0  0  0  0  0  0
    4.6111    0.9525   -2.1877 C   0  0  0  0  0  0  0  0  0  0  0  0
    5.8622    0.7612   -2.7816 C   0  0  0  0  0  0  0  0  0  0  0  0
    6.8081   -0.0550   -2.1667 C   0  0  0  0  0  0  0  0  0  0  0  0
    6.4966   -0.6880   -0.9639 C   0  0  0  0  0  0  0  0  0  0  0  0
    5.2414   -0.4948   -0.3748 C   0  0  0  0  0  0  0  0  0  0  0  0
    7.4597   -1.5341   -0.3304 C   0  0  0  0  0  0  0  0  0  0  0  0
    8.2700   -2.2366    0.2085 C   0  0  0  0  0  0  0  0  0  0  0  0
   -5.3522   -2.4819   -0.9178 H   0  0  0  0  0  0  0  0  0  0  0  0
   -3.8510   -1.5851   -1.1921 H   0  0  0  0  0  0  0  0  0  0  0  0
   -3.9577   -3.3242   -1.6297 H   0  0  0  0  0  0  0  0  0  0  0  0
   -2.3224   -3.6156    1.5375 H   0  0  0  0  0  0  0  0  0  0  0  0
   -2.2793   -4.1289   -0.1548 H   0  0  0  0  0  0  0  0  0  0  0  0
   -0.4700   -2.5430    0.2772 H   0  0  0  0  0  0  0  0  0  0  0  0
   -1.6477   -1.7443   -0.8017 H   0  0  0  0  0  0  0  0  0  0  0  0
    0.8367   -0.7032    0.4453 H   0  0  0  0  0  0  0  0  0  0  0  0
   -1.9549    3.3534    0.3142 H   0  0  0  0  0  0  0  0  0  0  0  0
   -3.1695    0.0437    2.7489 H   0  0  0  0  0  0  0  0  0  0  0  0
   -4.0705   -0.4627    1.2637 H   0  0  0  0  0  0  0  0  0  0  0  0
   -5.4847    0.1856    3.3039 H   0  0  0  0  0  0  0  0  0  0  0  0
   -4.9284    1.8671    3.0398 H   0  0  0  0  0  0  0  0  0  0  0  0
   -7.1436    2.6033    2.4962 H   0  0  0  0  0  0  0  0  0  0  0  0
   -8.0651    1.6673    1.2971 H   0  0  0  0  0  0  0  0  0  0  0  0
   -7.7120    0.9451    2.8837 H   0  0  0  0  0  0  0  0  0  0  0  0
    2.0891    4.7483   -1.2267 H   0  0  0  0  0  0  0  0  0  0  0  0
    3.0124    0.1249    0.5831 H   0  0  0  0  0  0  0  0  0  0  0  0
    3.8833    1.5770   -2.7004 H   0  0  0  0  0  0  0  0  0  0  0  0
    6.0918    1.2472   -3.7275 H   0  0  0  0  0  0  0  0  0  0  0  0
    7.7796   -0.1981   -2.6338 H   0  0  0  0  0  0  0  0  0  0  0  0
    5.0123   -1.0061    0.5561 H   0  0  0  0  0  0  0  0  0  0  0  0
    8.9904   -2.8542    0.6896 H   0  0  0  0  0  0  0  0  0  0  0  0
  1  2  1  0
  2  3  1  0
  3  4  1  0
  4  5  1  0
  5  6  1  0
  6  7  2  0
  7  8  1  0
  8  9  2  0
  9 10  1  0
 10 11  2  0
 11 12  1  0
 12 13  1  0
 13 14  1  0
 14 15  1  0
 15 16  1  0
  9 17  1  0
 17 18  2  0
 18 19  1  0
 19 20  2  0
 20 21  1  0
 21 22  1  0
 22 23  2  0
 23 24  1  0
 24 25  2  0
 25 26  1  0
 26 27  2  0
 26 28  1  0
 28 29  3  0
 11  6  1  0
 20  8  1  0
 27 22  1  0
  1 30  1  0
  1 31  1  0
  1 32  1  0
  3 33  1  0
  3 34  1  0
  4 35  1  0
  4 36  1  0
  7 37  1  0
 10 38  1  0
 13 39  1  0
 13 40  1  0
 14 41  1  0
 14 42  1  0
 16 43  1  0
 16 44  1  0
 16 45  1  0
 18 46  1  0
 21 47  1  0
 23 48  1  0
 24 49  1  0
 25 50  1  0
 27 51  1  0
 29 52  1  0
M  END
>  <energy_abs>  (176) 
60.00777212810273

>  <SMILES>  (176) 
COCCOc1cc2c(cc1OCCOC)ncnc2Nc3cccc(c3)C#C

>  <cluster_no>  (176) 
176

>  <fda_drugs_id>  (176) 
AAKJLRGGTJKAMG-UHFFFAOYSA-N

>  <initial_conformation_id>  (176) 
124

>  <minimize_method>  (176) 
MMFF

$$$$

     RDKit          3D

 52 54  0  0  0  0  0  0  0  0999 V2000
   -0.3976   -4.9338   -1.4161 C   0  0  0  0  0  0  0  0  0  0  0  0
   -0.4977   -4.2539   -0.1710 O   0  0  0  0  0  0  0  0  0  0  0  0
   -1.3111   -3.0856   -0.2769 C   0  0  0  0  0  0  0  0  0  0  0  0
   -1.3941   -2.4095    1.0890 C   0  0  0  0  0  0  0  0  0  0  0  0
   -2.1324   -1.1919    1.0215 O   0  0  0  0  0  0  0  0  0  0  0  0
   -1.4752   -0.0206    0.7493 C   0  0  0  0  0  0  0  0  0  0  0  0
   -0.1332    0.0770    0.3792 C   0  0  0  0  0  0  0  0  0  0  0  0
    0.4647    1.3357    0.1091 C   0  0  0  0  0  0  0  0  0  0  0  0
   -0.3120    2.4966    0.1962 C   0  0  0  0  0  0  0  0  0  0  0  0
   -1.6475    2.3873    0.5612 C   0  0  0  0  0  0  0  0  0  0  0  0
   -2.2420    1.1516    0.8397 C   0  0  0  0  0  0  0  0  0  0  0  0
   -3.5552    0.9839    1.2015 O   0  0  0  0  0  0  0  0  0  0  0  0
   -4.3703    2.1477    1.3252 C   0  0  0  0  0  0  0  0  0  0  0  0
   -5.7778    1.7095    1.7293 C   0  0  0  0  0  0  0  0  0  0  0  0
   -6.6749    2.8152    1.8366 O   0  0  0  0  0  0  0  0  0  0  0  0
   -6.5867    3.4814    3.0892 C   0  0  0  0  0  0  0  0  0  0  0  0
    0.1755    3.7127   -0.0616 N   0  0  0  0  0  0  0  0  0  0  0  0
    1.4600    3.7814   -0.4251 C   0  0  0  0  0  0  0  0  0  0  0  0
    2.3013    2.7521   -0.5424 N   0  0  0  0  0  0  0  0  0  0  0  0
    1.8107    1.5308   -0.2663 C   0  0  0  0  0  0  0  0  0  0  0  0
    2.6712    0.4008   -0.3360 N   0  0  0  0  0  0  0  0  0  0  0  0
    3.9479    0.2997   -0.9350 C   0  0  0  0  0  0  0  0  0  0  0  0
    4.3339    1.0778   -2.0332 C   0  0  0  0  0  0  0  0  0  0  0  0
    5.5790    0.8995   -2.6441 C   0  0  0  0  0  0  0  0  0  0  0  0
    6.4501   -0.0832   -2.1799 C   0  0  0  0  0  0  0  0  0  0  0  0
    6.0697   -0.8949   -1.1127 C   0  0  0  0  0  0  0  0  0  0  0  0
    4.8225   -0.7116   -0.5046 C   0  0  0  0  0  0  0  0  0  0  0  0
    6.9505   -1.9204   -0.6432 C   0  0  0  0  0  0  0  0  0  0  0  0
    7.6895   -2.7810   -0.2491 C   0  0  0  0  0  0  0  0  0  0  0  0
   -1.3858   -5.2596   -1.7550 H   0  0  0  0  0  0  0  0  0  0  0  0
    0.0660   -4.2885   -2.1684 H   0  0  0  0  0  0  0  0  0  0  0  0
    0.2324   -5.8163   -1.2765 H   0  0  0  0  0  0  0  0  0  0  0  0
   -0.8841   -2.4056   -1.0223 H   0  0  0  0  0  0  0  0  0  0  0  0
   -2.3184   -3.3564   -0.6159 H   0  0  0  0  0  0  0  0  0  0  0  0
   -1.9407   -3.0750    1.7686 H   0  0  0  0  0  0  0  0  0  0  0  0
   -0.4117   -2.2855    1.5604 H   0  0  0  0  0  0  0  0  0  0  0  0
    0.4737   -0.8149    0.2655 H   0  0  0  0  0  0  0  0  0  0  0  0
   -2.2166    3.3103    0.6162 H   0  0  0  0  0  0  0  0  0  0  0  0
   -4.4263    2.6866    0.3714 H   0  0  0  0  0  0  0  0  0  0  0  0
   -3.9578    2.8180    2.0873 H   0  0  0  0  0  0  0  0  0  0  0  0
   -6.1754    1.0413    0.9567 H   0  0  0  0  0  0  0  0  0  0  0  0
   -5.7624    1.1235    2.6566 H   0  0  0  0  0  0  0  0  0  0  0  0
   -5.5957    3.9204    3.2311 H   0  0  0  0  0  0  0  0  0  0  0  0
   -7.3249    4.2880    3.0996 H   0  0  0  0  0  0  0  0  0  0  0  0
   -6.8154    2.7922    3.9076 H   0  0  0  0  0  0  0  0  0  0  0  0
    1.8571    4.7668   -0.6432 H   0  0  0  0  0  0  0  0  0  0  0  0
    2.6436   -0.0854    0.5546 H   0  0  0  0  0  0  0  0  0  0  0  0
    3.6649    1.8344   -2.4346 H   0  0  0  0  0  0  0  0  0  0  0  0
    5.8613    1.5251   -3.4867 H   0  0  0  0  0  0  0  0  0  0  0  0
    7.4159   -0.2175   -2.6604 H   0  0  0  0  0  0  0  0  0  0  0  0
    4.5365   -1.3653    0.3156 H   0  0  0  0  0  0  0  0  0  0  0  0
    8.3461   -3.5437    0.0995 H   0  0  0  0  0  0  0  0  0  0  0  0
  1  2  1  0
  2  3  1  0
  3  4  1  0
  4  5  1  0
  5  6  1  0
  6  7  2  0
  7  8  1  0
  8  9  2  0
  9 10  1  0
 10 11  2  0
 11 12  1  0
 12 13  1  0
 13 14  1  0
 14 15  1  0
 15 16  1  0
  9 17  1  0
 17 18  2  0
 18 19  1  0
 19 20  2  0
 20 21  1  0
 21 22  1  0
 22 23  2  0
 23 24  1  0
 24 25  2  0
 25 26  1  0
 26 27  2  0
 26 28  1  0
 28 29  3  0
 11  6  1  0
 20  8  1  0
 27 22  1  0
  1 30  1  0
  1 31  1  0
  1 32  1  0
  3 33  1  0
  3 34  1  0
  4 35  1  0
  4 36  1  0
  7 37  1  0
 10 38  1  0
 13 39  1  0
 13 40  1  0
 14 41  1  0
 14 42  1  0
 16 43  1  0
 16 44  1  0
 16 45  1  0
 18 46  1  0
 21 47  1  0
 23 48  1  0
 24 49  1  0
 25 50  1  0
 27 51  1  0
 29 52  1  0
M  END
>  <energy_abs>  (177) 
58.31871949837586

>  <SMILES>  (177) 
COCCOc1cc2c(cc1OCCOC)ncnc2Nc3cccc(c3)C#C

>  <cluster_no>  (177) 
177

>  <fda_drugs_id>  (177) 
AAKJLRGGTJKAMG-UHFFFAOYSA-N

>  <initial_conformation_id>  (177) 
123

>  <minimize_method>  (177) 
MMFF

$$$$

     RDKit          3D

 52 54  0  0  0  0  0  0  0  0999 V2000
   -1.4749   -4.8825   -2.4141 C   0  0  0  0  0  0  0  0  0  0  0  0
   -1.3170   -4.4009   -1.0858 O   0  0  0  0  0  0  0  0  0  0  0  0
   -1.9713   -3.1461   -0.9013 C   0  0  0  0  0  0  0  0  0  0  0  0
   -1.8294   -2.7120    0.5554 C   0  0  0  0  0  0  0  0  0  0  0  0
   -2.4017   -1.4242    0.7695 O   0  0  0  0  0  0  0  0  0  0  0  0
   -1.6521   -0.3006    0.5364 C   0  0  0  0  0  0  0  0  0  0  0  0
   -0.3299   -0.2975    0.0897 C   0  0  0  0  0  0  0  0  0  0  0  0
    0.3684    0.9187   -0.1288 C   0  0  0  0  0  0  0  0  0  0  0  0
   -0.2758    2.1340    0.1282 C   0  0  0  0  0  0  0  0  0  0  0  0
   -1.5926    2.1187    0.5706 C   0  0  0  0  0  0  0  0  0  0  0  0
   -2.2950    0.9259    0.7712 C   0  0  0  0  0  0  0  0  0  0  0  0
   -3.5936    0.8445    1.2052 O   0  0  0  0  0  0  0  0  0  0  0  0
   -4.3624    2.0361    1.3536 C   0  0  0  0  0  0  0  0  0  0  0  0
   -4.2139    2.6205    2.7587 C   0  0  0  0  0  0  0  0  0  0  0  0
   -4.9276    3.8486    2.9066 O   0  0  0  0  0  0  0  0  0  0  0  0
   -6.3140    3.6601    3.1573 C   0  0  0  0  0  0  0  0  0  0  0  0
    0.3228    3.3165   -0.0330 N   0  0  0  0  0  0  0  0  0  0  0  0
    1.5922    3.2974   -0.4509 C   0  0  0  0  0  0  0  0  0  0  0  0
    2.3101    2.2094   -0.7358 N   0  0  0  0  0  0  0  0  0  0  0  0
    1.7003    1.0207   -0.5839 C   0  0  0  0  0  0  0  0  0  0  0  0
    2.4067   -0.1705   -0.9067 N   0  0  0  0  0  0  0  0  0  0  0  0
    3.7947   -0.3415   -1.1172 C   0  0  0  0  0  0  0  0  0  0  0  0
    4.2350   -1.4376   -1.8770 C   0  0  0  0  0  0  0  0  0  0  0  0
    5.5972   -1.6898   -2.0611 C   0  0  0  0  0  0  0  0  0  0  0  0
    6.5443   -0.8613   -1.4642 C   0  0  0  0  0  0  0  0  0  0  0  0
    6.1275    0.2094   -0.6740 C   0  0  0  0  0  0  0  0  0  0  0  0
    4.7618    0.4568   -0.4930 C   0  0  0  0  0  0  0  0  0  0  0  0
    7.0978    1.0487   -0.0394 C   0  0  0  0  0  0  0  0  0  0  0  0
    7.9113    1.7531    0.4933 C   0  0  0  0  0  0  0  0  0  0  0  0
   -0.9522   -5.8390   -2.4976 H   0  0  0  0  0  0  0  0  0  0  0  0
   -2.5335   -5.0415   -2.6407 H   0  0  0  0  0  0  0  0  0  0  0  0
   -1.0365   -4.1809   -3.1303 H   0  0  0  0  0  0  0  0  0  0  0  0
   -3.0346   -3.2318   -1.1565 H   0  0  0  0  0  0  0  0  0  0  0  0
   -1.5297   -2.4022   -1.5736 H   0  0  0  0  0  0  0  0  0  0  0  0
   -2.3935   -3.4169    1.1789 H   0  0  0  0  0  0  0  0  0  0  0  0
   -0.8000   -2.7873    0.9243 H   0  0  0  0  0  0  0  0  0  0  0  0
    0.1967   -1.2293   -0.0851 H   0  0  0  0  0  0  0  0  0  0  0  0
   -2.0506    3.0839    0.7641 H   0  0  0  0  0  0  0  0  0  0  0  0
   -4.1658    2.7743    0.5673 H   0  0  0  0  0  0  0  0  0  0  0  0
   -5.4076    1.7448    1.2003 H   0  0  0  0  0  0  0  0  0  0  0  0
   -3.1598    2.8383    2.9590 H   0  0  0  0  0  0  0  0  0  0  0  0
   -4.5189    1.8945    3.5225 H   0  0  0  0  0  0  0  0  0  0  0  0
   -6.7707    4.6426    3.3042 H   0  0  0  0  0  0  0  0  0  0  0  0
   -6.4640    3.0692    4.0658 H   0  0  0  0  0  0  0  0  0  0  0  0
   -6.8036    3.1777    2.3073 H   0  0  0  0  0  0  0  0  0  0  0  0
    2.0843    4.2562   -0.5732 H   0  0  0  0  0  0  0  0  0  0  0  0
    1.8649   -0.6990   -1.5820 H   0  0  0  0  0  0  0  0  0  0  0  0
    3.5171   -2.1101   -2.3398 H   0  0  0  0  0  0  0  0  0  0  0  0
    5.9179   -2.5355   -2.6636 H   0  0  0  0  0  0  0  0  0  0  0  0
    7.6032   -1.0610   -1.6075 H   0  0  0  0  0  0  0  0  0  0  0  0
    4.4577    1.2793    0.1490 H   0  0  0  0  0  0  0  0  0  0  0  0
    8.6302    2.3800    0.9666 H   0  0  0  0  0  0  0  0  0  0  0  0
  1  2  1  0
  2  3  1  0
  3  4  1  0
  4  5  1  0
  5  6  1  0
  6  7  2  0
  7  8  1  0
  8  9  2  0
  9 10  1  0
 10 11  2  0
 11 12  1  0
 12 13  1  0
 13 14  1  0
 14 15  1  0
 15 16  1  0
  9 17  1  0
 17 18  2  0
 18 19  1  0
 19 20  2  0
 20 21  1  0
 21 22  1  0
 22 23  2  0
 23 24  1  0
 24 25  2  0
 25 26  1  0
 26 27  2  0
 26 28  1  0
 28 29  3  0
 11  6  1  0
 20  8  1  0
 27 22  1  0
  1 30  1  0
  1 31  1  0
  1 32  1  0
  3 33  1  0
  3 34  1  0
  4 35  1  0
  4 36  1  0
  7 37  1  0
 10 38  1  0
 13 39  1  0
 13 40  1  0
 14 41  1  0
 14 42  1  0
 16 43  1  0
 16 44  1  0
 16 45  1  0
 18 46  1  0
 21 47  1  0
 23 48  1  0
 24 49  1  0
 25 50  1  0
 27 51  1  0
 29 52  1  0
M  END
>  <energy_abs>  (178) 
60.79609595991848

>  <SMILES>  (178) 
COCCOc1cc2c(cc1OCCOC)ncnc2Nc3cccc(c3)C#C

>  <cluster_no>  (178) 
178

>  <fda_drugs_id>  (178) 
AAKJLRGGTJKAMG-UHFFFAOYSA-N

>  <initial_conformation_id>  (178) 
122

>  <minimize_method>  (178) 
MMFF

$$$$

     RDKit          3D

 52 54  0  0  0  0  0  0  0  0999 V2000
   -1.3024   -5.5750    0.5475 C   0  0  0  0  0  0  0  0  0  0  0  0
   -0.4862   -4.5871   -0.0684 O   0  0  0  0  0  0  0  0  0  0  0  0
   -1.2273   -3.4494   -0.5160 C   0  0  0  0  0  0  0  0  0  0  0  0
   -1.6092   -2.5098    0.6274 C   0  0  0  0  0  0  0  0  0  0  0  0
   -2.2121   -1.3279    0.0917 O   0  0  0  0  0  0  0  0  0  0  0  0
   -1.5487   -0.1653    0.3933 C   0  0  0  0  0  0  0  0  0  0  0  0
   -0.1876   -0.0104    0.1290 C   0  0  0  0  0  0  0  0  0  0  0  0
    0.4685    1.2129    0.4088 C   0  0  0  0  0  0  0  0  0  0  0  0
   -0.2744    2.2835    0.9234 C   0  0  0  0  0  0  0  0  0  0  0  0
   -1.6371    2.1175    1.1513 C   0  0  0  0  0  0  0  0  0  0  0  0
   -2.2925    0.9104    0.8918 C   0  0  0  0  0  0  0  0  0  0  0  0
   -3.6267    0.6736    1.0887 O   0  0  0  0  0  0  0  0  0  0  0  0
   -4.4661    1.7279    1.5556 C   0  0  0  0  0  0  0  0  0  0  0  0
   -4.9601    2.6012    0.4016 C   0  0  0  0  0  0  0  0  0  0  0  0
   -5.7384    3.7097    0.8543 O   0  0  0  0  0  0  0  0  0  0  0  0
   -7.0724    3.3546    1.1957 C   0  0  0  0  0  0  0  0  0  0  0  0
    0.2717    3.4698    1.1998 N   0  0  0  0  0  0  0  0  0  0  0  0
    1.5784    3.6041    0.9529 C   0  0  0  0  0  0  0  0  0  0  0  0
    2.3892    2.6631    0.4632 N   0  0  0  0  0  0  0  0  0  0  0  0
    1.8401    1.4656    0.1955 C   0  0  0  0  0  0  0  0  0  0  0  0
    2.6587    0.4169   -0.3028 N   0  0  0  0  0  0  0  0  0  0  0  0
    3.9584    0.4889   -0.8537 C   0  0  0  0  0  0  0  0  0  0  0  0
    4.4503    1.6317   -1.4953 C   0  0  0  0  0  0  0  0  0  0  0  0
    5.7138    1.6379   -2.0947 C   0  0  0  0  0  0  0  0  0  0  0  0
    6.4991    0.4874   -2.0807 C   0  0  0  0  0  0  0  0  0  0  0  0
    6.0139   -0.6720   -1.4796 C   0  0  0  0  0  0  0  0  0  0  0  0
    4.7484   -0.6724   -0.8817 C   0  0  0  0  0  0  0  0  0  0  0  0
    6.8049   -1.8645   -1.4804 C   0  0  0  0  0  0  0  0  0  0  0  0
    7.4648   -2.8681   -1.4889 C   0  0  0  0  0  0  0  0  0  0  0  0
   -0.6778   -6.4460    0.7639 H   0  0  0  0  0  0  0  0  0  0  0  0
   -2.1100   -5.8847   -0.1232 H   0  0  0  0  0  0  0  0  0  0  0  0
   -1.7146   -5.2056    1.4905 H   0  0  0  0  0  0  0  0  0  0  0  0
   -0.5894   -2.9127   -1.2273 H   0  0  0  0  0  0  0  0  0  0  0  0
   -2.1127   -3.7593   -1.0849 H   0  0  0  0  0  0  0  0  0  0  0  0
   -2.3600   -2.9910    1.2630 H   0  0  0  0  0  0  0  0  0  0  0  0
   -0.7502   -2.3139    1.2814 H   0  0  0  0  0  0  0  0  0  0  0  0
    0.3653   -0.8289   -0.3263 H   0  0  0  0  0  0  0  0  0  0  0  0
   -2.1729    2.9812    1.5332 H   0  0  0  0  0  0  0  0  0  0  0  0
   -5.3297    1.2434    2.0271 H   0  0  0  0  0  0  0  0  0  0  0  0
   -4.0072    2.3132    2.3608 H   0  0  0  0  0  0  0  0  0  0  0  0
   -4.1049    3.0154   -0.1434 H   0  0  0  0  0  0  0  0  0  0  0  0
   -5.5184    2.0056   -0.3314 H   0  0  0  0  0  0  0  0  0  0  0  0
   -7.5636    2.8407    0.3624 H   0  0  0  0  0  0  0  0  0  0  0  0
   -7.6256    4.2743    1.4089 H   0  0  0  0  0  0  0  0  0  0  0  0
   -7.0899    2.7283    2.0921 H   0  0  0  0  0  0  0  0  0  0  0  0
    2.0228    4.5689    1.1730 H   0  0  0  0  0  0  0  0  0  0  0  0
    2.5526   -0.3987    0.2912 H   0  0  0  0  0  0  0  0  0  0  0  0
    3.8525    2.5387   -1.5423 H   0  0  0  0  0  0  0  0  0  0  0  0
    6.0776    2.5410   -2.5772 H   0  0  0  0  0  0  0  0  0  0  0  0
    7.4793    0.4987   -2.5503 H   0  0  0  0  0  0  0  0  0  0  0  0
    4.3811   -1.5907   -0.4295 H   0  0  0  0  0  0  0  0  0  0  0  0
    8.0454   -3.7596   -1.5043 H   0  0  0  0  0  0  0  0  0  0  0  0
  1  2  1  0
  2  3  1  0
  3  4  1  0
  4  5  1  0
  5  6  1  0
  6  7  2  0
  7  8  1  0
  8  9  2  0
  9 10  1  0
 10 11  2  0
 11 12  1  0
 12 13  1  0
 13 14  1  0
 14 15  1  0
 15 16  1  0
  9 17  1  0
 17 18  2  0
 18 19  1  0
 19 20  2  0
 20 21  1  0
 21 22  1  0
 22 23  2  0
 23 24  1  0
 24 25  2  0
 25 26  1  0
 26 27  2  0
 26 28  1  0
 28 29  3  0
 11  6  1  0
 20  8  1  0
 27 22  1  0
  1 30  1  0
  1 31  1  0
  1 32  1  0
  3 33  1  0
  3 34  1  0
  4 35  1  0
  4 36  1  0
  7 37  1  0
 10 38  1  0
 13 39  1  0
 13 40  1  0
 14 41  1  0
 14 42  1  0
 16 43  1  0
 16 44  1  0
 16 45  1  0
 18 46  1  0
 21 47  1  0
 23 48  1  0
 24 49  1  0
 25 50  1  0
 27 51  1  0
 29 52  1  0
M  END
>  <energy_abs>  (179) 
62.05880507776946

>  <SMILES>  (179) 
COCCOc1cc2c(cc1OCCOC)ncnc2Nc3cccc(c3)C#C

>  <cluster_no>  (179) 
179

>  <fda_drugs_id>  (179) 
AAKJLRGGTJKAMG-UHFFFAOYSA-N

>  <initial_conformation_id>  (179) 
120

>  <minimize_method>  (179) 
MMFF

$$$$

     RDKit          3D

 52 54  0  0  0  0  0  0  0  0999 V2000
   -3.2181   -4.0473   -1.7394 C   0  0  0  0  0  0  0  0  0  0  0  0
   -3.6938   -4.0965   -0.3956 O   0  0  0  0  0  0  0  0  0  0  0  0
   -3.3875   -2.9162    0.3530 C   0  0  0  0  0  0  0  0  0  0  0  0
   -1.9244   -2.8755    0.8016 C   0  0  0  0  0  0  0  0  0  0  0  0
   -1.6686   -1.7513    1.6547 O   0  0  0  0  0  0  0  0  0  0  0  0
   -1.2654   -0.6492    0.9430 C   0  0  0  0  0  0  0  0  0  0  0  0
    0.0577   -0.5616    0.5161 C   0  0  0  0  0  0  0  0  0  0  0  0
    0.5034    0.5734   -0.1993 C   0  0  0  0  0  0  0  0  0  0  0  0
   -0.3938    1.6233   -0.4423 C   0  0  0  0  0  0  0  0  0  0  0  0
   -1.7009    1.5248    0.0257 C   0  0  0  0  0  0  0  0  0  0  0  0
   -2.1525    0.4075    0.7307 C   0  0  0  0  0  0  0  0  0  0  0  0
   -3.4171    0.2416    1.2282 O   0  0  0  0  0  0  0  0  0  0  0  0
   -4.2865    1.3717    1.3080 C   0  0  0  0  0  0  0  0  0  0  0  0
   -3.9336    2.2788    2.4897 C   0  0  0  0  0  0  0  0  0  0  0  0
   -4.8539    3.3651    2.6170 O   0  0  0  0  0  0  0  0  0  0  0  0
   -4.5314    4.4659    1.7774 C   0  0  0  0  0  0  0  0  0  0  0  0
   -0.0455    2.7282   -1.1037 N   0  0  0  0  0  0  0  0  0  0  0  0
    1.2208    2.8027   -1.5268 C   0  0  0  0  0  0  0  0  0  0  0  0
    2.1639    1.8750   -1.3556 N   0  0  0  0  0  0  0  0  0  0  0  0
    1.8096    0.7565   -0.6992 C   0  0  0  0  0  0  0  0  0  0  0  0
    2.7680   -0.2770   -0.5115 N   0  0  0  0  0  0  0  0  0  0  0  0
    4.1666   -0.2255   -0.7188 C   0  0  0  0  0  0  0  0  0  0  0  0
    4.8619   -1.4211   -0.9618 C   0  0  0  0  0  0  0  0  0  0  0  0
    6.2510   -1.4319   -1.1273 C   0  0  0  0  0  0  0  0  0  0  0  0
    6.9719   -0.2451   -1.0258 C   0  0  0  0  0  0  0  0  0  0  0  0
    6.3038    0.9445   -0.7323 C   0  0  0  0  0  0  0  0  0  0  0  0
    4.9140    0.9491   -0.5720 C   0  0  0  0  0  0  0  0  0  0  0  0
    7.0422    2.1618   -0.5799 C   0  0  0  0  0  0  0  0  0  0  0  0
    7.6571    3.1828   -0.4243 C   0  0  0  0  0  0  0  0  0  0  0  0
   -2.1291   -4.1476   -1.7666 H   0  0  0  0  0  0  0  0  0  0  0  0
   -3.6484   -4.8913   -2.2850 H   0  0  0  0  0  0  0  0  0  0  0  0
   -3.5277   -3.1190   -2.2346 H   0  0  0  0  0  0  0  0  0  0  0  0
   -3.6593   -2.0228   -0.2232 H   0  0  0  0  0  0  0  0  0  0  0  0
   -4.0318   -2.9139    1.2421 H   0  0  0  0  0  0  0  0  0  0  0  0
   -1.2393   -2.9085   -0.0551 H   0  0  0  0  0  0  0  0  0  0  0  0
   -1.7052   -3.7775    1.3859 H   0  0  0  0  0  0  0  0  0  0  0  0
    0.7422   -1.3671    0.7622 H   0  0  0  0  0  0  0  0  0  0  0  0
   -2.3578    2.3626   -0.1842 H   0  0  0  0  0  0  0  0  0  0  0  0
   -5.2991    0.9797    1.4712 H   0  0  0  0  0  0  0  0  0  0  0  0
   -4.3527    1.9066    0.3543 H   0  0  0  0  0  0  0  0  0  0  0  0
   -2.9034    2.6517    2.4346 H   0  0  0  0  0  0  0  0  0  0  0  0
   -3.9909    1.6911    3.4127 H   0  0  0  0  0  0  0  0  0  0  0  0
   -4.5485    4.1759    0.7238 H   0  0  0  0  0  0  0  0  0  0  0  0
   -5.2835    5.2456    1.9341 H   0  0  0  0  0  0  0  0  0  0  0  0
   -3.5503    4.8719    2.0401 H   0  0  0  0  0  0  0  0  0  0  0  0
    1.5094    3.7014   -2.0620 H   0  0  0  0  0  0  0  0  0  0  0  0
    2.3792   -1.1521   -0.8463 H   0  0  0  0  0  0  0  0  0  0  0  0
    4.3268   -2.3660   -1.0237 H   0  0  0  0  0  0  0  0  0  0  0  0
    6.7686   -2.3664   -1.3291 H   0  0  0  0  0  0  0  0  0  0  0  0
    8.0510   -0.2546   -1.1552 H   0  0  0  0  0  0  0  0  0  0  0  0
    4.4181    1.8819   -0.3211 H   0  0  0  0  0  0  0  0  0  0  0  0
    8.1976    4.0908   -0.2957 H   0  0  0  0  0  0  0  0  0  0  0  0
  1  2  1  0
  2  3  1  0
  3  4  1  0
  4  5  1  0
  5  6  1  0
  6  7  2  0
  7  8  1  0
  8  9  2  0
  9 10  1  0
 10 11  2  0
 11 12  1  0
 12 13  1  0
 13 14  1  0
 14 15  1  0
 15 16  1  0
  9 17  1  0
 17 18  2  0
 18 19  1  0
 19 20  2  0
 20 21  1  0
 21 22  1  0
 22 23  2  0
 23 24  1  0
 24 25  2  0
 25 26  1  0
 26 27  2  0
 26 28  1  0
 28 29  3  0
 11  6  1  0
 20  8  1  0
 27 22  1  0
  1 30  1  0
  1 31  1  0
  1 32  1  0
  3 33  1  0
  3 34  1  0
  4 35  1  0
  4 36  1  0
  7 37  1  0
 10 38  1  0
 13 39  1  0
 13 40  1  0
 14 41  1  0
 14 42  1  0
 16 43  1  0
 16 44  1  0
 16 45  1  0
 18 46  1  0
 21 47  1  0
 23 48  1  0
 24 49  1  0
 25 50  1  0
 27 51  1  0
 29 52  1  0
M  END
>  <energy_abs>  (180) 
62.21825350722267

>  <SMILES>  (180) 
COCCOc1cc2c(cc1OCCOC)ncnc2Nc3cccc(c3)C#C

>  <cluster_no>  (180) 
180

>  <fda_drugs_id>  (180) 
AAKJLRGGTJKAMG-UHFFFAOYSA-N

>  <initial_conformation_id>  (180) 
119

>  <minimize_method>  (180) 
MMFF

$$$$

     RDKit          3D

 52 54  0  0  0  0  0  0  0  0999 V2000
   -4.0298   -4.9458    0.0953 C   0  0  0  0  0  0  0  0  0  0  0  0
   -3.5266   -3.9081   -0.7356 O   0  0  0  0  0  0  0  0  0  0  0  0
   -3.3413   -2.6784   -0.0327 C   0  0  0  0  0  0  0  0  0  0  0  0
   -1.9662   -2.6202    0.6368 C   0  0  0  0  0  0  0  0  0  0  0  0
   -1.8209   -1.4353    1.4310 O   0  0  0  0  0  0  0  0  0  0  0  0
   -1.3420   -0.3814    0.7040 C   0  0  0  0  0  0  0  0  0  0  0  0
   -0.0020   -0.3442    0.3266 C   0  0  0  0  0  0  0  0  0  0  0  0
    0.5080    0.7504   -0.4178 C   0  0  0  0  0  0  0  0  0  0  0  0
   -0.3435    1.8165   -0.7492 C   0  0  0  0  0  0  0  0  0  0  0  0
   -1.6714    1.7645   -0.3468 C   0  0  0  0  0  0  0  0  0  0  0  0
   -2.1697    0.6938    0.3957 C   0  0  0  0  0  0  0  0  0  0  0  0
   -3.4959    0.7385    0.7310 O   0  0  0  0  0  0  0  0  0  0  0  0
   -3.6918    0.7670    2.1531 C   0  0  0  0  0  0  0  0  0  0  0  0
   -4.9081    1.6419    2.4689 C   0  0  0  0  0  0  0  0  0  0  0  0
   -4.7405    3.0146    2.0960 O   0  0  0  0  0  0  0  0  0  0  0  0
   -3.8199    3.7227    2.9139 C   0  0  0  0  0  0  0  0  0  0  0  0
    0.0729    2.8854   -1.4316 N   0  0  0  0  0  0  0  0  0  0  0  0
    1.3612    2.9081   -1.7867 C   0  0  0  0  0  0  0  0  0  0  0  0
    2.2657    1.9593   -1.5343 N   0  0  0  0  0  0  0  0  0  0  0  0
    1.8404    0.8752   -0.8616 C   0  0  0  0  0  0  0  0  0  0  0  0
    2.7491   -0.1885   -0.6061 N   0  0  0  0  0  0  0  0  0  0  0  0
    4.1583   -0.1846   -0.7231 C   0  0  0  0  0  0  0  0  0  0  0  0
    4.8257   -1.4010   -0.9393 C   0  0  0  0  0  0  0  0  0  0  0  0
    6.2200   -1.4595   -1.0021 C   0  0  0  0  0  0  0  0  0  0  0  0
    6.9728   -0.3021   -0.8215 C   0  0  0  0  0  0  0  0  0  0  0  0
    6.3303    0.9099   -0.5696 C   0  0  0  0  0  0  0  0  0  0  0  0
    4.9332    0.9628   -0.5099 C   0  0  0  0  0  0  0  0  0  0  0  0
    7.1018    2.0981   -0.3638 C   0  0  0  0  0  0  0  0  0  0  0  0
    7.7490    3.0949   -0.1916 C   0  0  0  0  0  0  0  0  0  0  0  0
   -5.0127   -4.6728    0.4926 H   0  0  0  0  0  0  0  0  0  0  0  0
   -4.1415   -5.8474   -0.5121 H   0  0  0  0  0  0  0  0  0  0  0  0
   -3.3401   -5.1644    0.9151 H   0  0  0  0  0  0  0  0  0  0  0  0
   -3.4178   -1.8728   -0.7730 H   0  0  0  0  0  0  0  0  0  0  0  0
   -4.1479   -2.5078    0.6922 H   0  0  0  0  0  0  0  0  0  0  0  0
   -1.1681   -2.7359   -0.1079 H   0  0  0  0  0  0  0  0  0  0  0  0
   -1.8501   -3.4683    1.3192 H   0  0  0  0  0  0  0  0  0  0  0  0
    0.6524   -1.1582    0.6280 H   0  0  0  0  0  0  0  0  0  0  0  0
   -2.3363    2.5858   -0.6048 H   0  0  0  0  0  0  0  0  0  0  0  0
   -2.8078    1.1458    2.6794 H   0  0  0  0  0  0  0  0  0  0  0  0
   -3.8947   -0.2535    2.4944 H   0  0  0  0  0  0  0  0  0  0  0  0
   -5.7695    1.2758    1.8989 H   0  0  0  0  0  0  0  0  0  0  0  0
   -5.1629    1.5806    3.5330 H   0  0  0  0  0  0  0  0  0  0  0  0
   -2.7978    3.3805    2.7348 H   0  0  0  0  0  0  0  0  0  0  0  0
   -4.0770    3.6171    3.9722 H   0  0  0  0  0  0  0  0  0  0  0  0
   -3.8731    4.7826    2.6480 H   0  0  0  0  0  0  0  0  0  0  0  0
    1.7046    3.7799   -2.3333 H   0  0  0  0  0  0  0  0  0  0  0  0
    2.3515   -1.0481   -0.9709 H   0  0  0  0  0  0  0  0  0  0  0  0
    4.2625   -2.3215   -1.0687 H   0  0  0  0  0  0  0  0  0  0  0  0
    6.7177   -2.4077   -1.1862 H   0  0  0  0  0  0  0  0  0  0  0  0
    8.0578   -0.3510   -0.8705 H   0  0  0  0  0  0  0  0  0  0  0  0
    4.4517    1.9124   -0.2895 H   0  0  0  0  0  0  0  0  0  0  0  0
    8.3218    3.9810   -0.0434 H   0  0  0  0  0  0  0  0  0  0  0  0
  1  2  1  0
  2  3  1  0
  3  4  1  0
  4  5  1  0
  5  6  1  0
  6  7  2  0
  7  8  1  0
  8  9  2  0
  9 10  1  0
 10 11  2  0
 11 12  1  0
 12 13  1  0
 13 14  1  0
 14 15  1  0
 15 16  1  0
  9 17  1  0
 17 18  2  0
 18 19  1  0
 19 20  2  0
 20 21  1  0
 21 22  1  0
 22 23  2  0
 23 24  1  0
 24 25  2  0
 25 26  1  0
 26 27  2  0
 26 28  1  0
 28 29  3  0
 11  6  1  0
 20  8  1  0
 27 22  1  0
  1 30  1  0
  1 31  1  0
  1 32  1  0
  3 33  1  0
  3 34  1  0
  4 35  1  0
  4 36  1  0
  7 37  1  0
 10 38  1  0
 13 39  1  0
 13 40  1  0
 14 41  1  0
 14 42  1  0
 16 43  1  0
 16 44  1  0
 16 45  1  0
 18 46  1  0
 21 47  1  0
 23 48  1  0
 24 49  1  0
 25 50  1  0
 27 51  1  0
 29 52  1  0
M  END
>  <energy_abs>  (181) 
61.56679356299036

>  <SMILES>  (181) 
COCCOc1cc2c(cc1OCCOC)ncnc2Nc3cccc(c3)C#C

>  <cluster_no>  (181) 
181

>  <fda_drugs_id>  (181) 
AAKJLRGGTJKAMG-UHFFFAOYSA-N

>  <initial_conformation_id>  (181) 
118

>  <minimize_method>  (181) 
MMFF

$$$$

     RDKit          3D

 52 54  0  0  0  0  0  0  0  0999 V2000
   -1.3157   -5.2917    0.8670 C   0  0  0  0  0  0  0  0  0  0  0  0
   -1.9078   -4.6768   -0.2702 O   0  0  0  0  0  0  0  0  0  0  0  0
   -2.5240   -3.4253    0.0324 C   0  0  0  0  0  0  0  0  0  0  0  0
   -1.5165   -2.2764    0.0153 C   0  0  0  0  0  0  0  0  0  0  0  0
   -2.2163   -1.0572    0.2608 O   0  0  0  0  0  0  0  0  0  0  0  0
   -1.4716    0.0807    0.4039 C   0  0  0  0  0  0  0  0  0  0  0  0
   -0.1141    0.1991    0.1103 C   0  0  0  0  0  0  0  0  0  0  0  0
    0.5767    1.4280    0.3063 C   0  0  0  0  0  0  0  0  0  0  0  0
   -0.1120    2.5352    0.8222 C   0  0  0  0  0  0  0  0  0  0  0  0
   -1.4634    2.4091    1.1006 C   0  0  0  0  0  0  0  0  0  0  0  0
   -2.1428    1.2109    0.8745 C   0  0  0  0  0  0  0  0  0  0  0  0
   -3.4715    1.1579    1.2144 O   0  0  0  0  0  0  0  0  0  0  0  0
   -4.2923    1.3723    0.0534 C   0  0  0  0  0  0  0  0  0  0  0  0
   -5.7653    1.2893    0.4606 C   0  0  0  0  0  0  0  0  0  0  0  0
   -6.2712    2.5178    0.9959 O   0  0  0  0  0  0  0  0  0  0  0  0
   -5.7851    2.8098    2.2994 C   0  0  0  0  0  0  0  0  0  0  0  0
    0.4777    3.7096    1.0574 N   0  0  0  0  0  0  0  0  0  0  0  0
    1.7831    3.7917    0.7835 C   0  0  0  0  0  0  0  0  0  0  0  0
    2.5464    2.8162    0.2855 N   0  0  0  0  0  0  0  0  0  0  0  0
    1.9448    1.6397    0.0357 C   0  0  0  0  0  0  0  0  0  0  0  0
    2.6988    0.5798   -0.5409 N   0  0  0  0  0  0  0  0  0  0  0  0
    4.1042    0.4594   -0.6448 C   0  0  0  0  0  0  0  0  0  0  0  0
    4.9824    1.0175    0.2920 C   0  0  0  0  0  0  0  0  0  0  0  0
    6.3630    0.8184    0.1970 C   0  0  0  0  0  0  0  0  0  0  0  0
    6.8862    0.0321   -0.8270 C   0  0  0  0  0  0  0  0  0  0  0  0
    6.0264   -0.5647   -1.7474 C   0  0  0  0  0  0  0  0  0  0  0  0
    4.6451   -0.3621   -1.6473 C   0  0  0  0  0  0  0  0  0  0  0  0
    6.5546   -1.3885   -2.7915 C   0  0  0  0  0  0  0  0  0  0  0  0
    6.9990   -2.0772   -3.6693 C   0  0  0  0  0  0  0  0  0  0  0  0
   -0.5161   -4.6699    1.2781 H   0  0  0  0  0  0  0  0  0  0  0  0
   -0.8840   -6.2461    0.5532 H   0  0  0  0  0  0  0  0  0  0  0  0
   -2.0721   -5.4887    1.6326 H   0  0  0  0  0  0  0  0  0  0  0  0
   -3.0632   -3.4692    0.9869 H   0  0  0  0  0  0  0  0  0  0  0  0
   -3.2838   -3.2413   -0.7362 H   0  0  0  0  0  0  0  0  0  0  0  0
   -0.7540   -2.4413    0.7854 H   0  0  0  0  0  0  0  0  0  0  0  0
   -1.0270   -2.2478   -0.9659 H   0  0  0  0  0  0  0  0  0  0  0  0
    0.4442   -0.6550   -0.2592 H   0  0  0  0  0  0  0  0  0  0  0  0
   -2.0036    3.2617    1.5045 H   0  0  0  0  0  0  0  0  0  0  0  0
   -4.0768    2.3569   -0.3796 H   0  0  0  0  0  0  0  0  0  0  0  0
   -4.0906    0.5898   -0.6875 H   0  0  0  0  0  0  0  0  0  0  0  0
   -6.3619    1.0901   -0.4358 H   0  0  0  0  0  0  0  0  0  0  0  0
   -5.9454    0.4748    1.1716 H   0  0  0  0  0  0  0  0  0  0  0  0
   -5.9058    1.9517    2.9674 H   0  0  0  0  0  0  0  0  0  0  0  0
   -6.3684    3.6441    2.6992 H   0  0  0  0  0  0  0  0  0  0  0  0
   -4.7385    3.1217    2.2594 H   0  0  0  0  0  0  0  0  0  0  0  0
    2.2678    4.7417    0.9811 H   0  0  0  0  0  0  0  0  0  0  0  0
    2.2426    0.2917   -1.4006 H   0  0  0  0  0  0  0  0  0  0  0  0
    4.6013    1.6153    1.1159 H   0  0  0  0  0  0  0  0  0  0  0  0
    7.0257    1.2736    0.9283 H   0  0  0  0  0  0  0  0  0  0  0  0
    7.9605   -0.1192   -0.8946 H   0  0  0  0  0  0  0  0  0  0  0  0
    3.9894   -0.8483   -2.3653 H   0  0  0  0  0  0  0  0  0  0  0  0
    7.3948   -2.6880   -4.4468 H   0  0  0  0  0  0  0  0  0  0  0  0
  1  2  1  0
  2  3  1  0
  3  4  1  0
  4  5  1  0
  5  6  1  0
  6  7  2  0
  7  8  1  0
  8  9  2  0
  9 10  1  0
 10 11  2  0
 11 12  1  0
 12 13  1  0
 13 14  1  0
 14 15  1  0
 15 16  1  0
  9 17  1  0
 17 18  2  0
 18 19  1  0
 19 20  2  0
 20 21  1  0
 21 22  1  0
 22 23  2  0
 23 24  1  0
 24 25  2  0
 25 26  1  0
 26 27  2  0
 26 28  1  0
 28 29  3  0
 11  6  1  0
 20  8  1  0
 27 22  1  0
  1 30  1  0
  1 31  1  0
  1 32  1  0
  3 33  1  0
  3 34  1  0
  4 35  1  0
  4 36  1  0
  7 37  1  0
 10 38  1  0
 13 39  1  0
 13 40  1  0
 14 41  1  0
 14 42  1  0
 16 43  1  0
 16 44  1  0
 16 45  1  0
 18 46  1  0
 21 47  1  0
 23 48  1  0
 24 49  1  0
 25 50  1  0
 27 51  1  0
 29 52  1  0
M  END
>  <energy_abs>  (182) 
58.415769542691656

>  <SMILES>  (182) 
COCCOc1cc2c(cc1OCCOC)ncnc2Nc3cccc(c3)C#C

>  <cluster_no>  (182) 
182

>  <fda_drugs_id>  (182) 
AAKJLRGGTJKAMG-UHFFFAOYSA-N

>  <initial_conformation_id>  (182) 
117

>  <minimize_method>  (182) 
MMFF

$$$$

     RDKit          3D

 52 54  0  0  0  0  0  0  0  0999 V2000
   -2.1127   -5.2140   -1.4120 C   0  0  0  0  0  0  0  0  0  0  0  0
   -1.3215   -4.0575   -1.6593 O   0  0  0  0  0  0  0  0  0  0  0  0
   -1.9751   -2.8440   -1.2859 C   0  0  0  0  0  0  0  0  0  0  0  0
   -1.8447   -2.5626    0.2115 C   0  0  0  0  0  0  0  0  0  0  0  0
   -2.3674   -1.2793    0.5484 O   0  0  0  0  0  0  0  0  0  0  0  0
   -1.5800   -0.1676    0.3996 C   0  0  0  0  0  0  0  0  0  0  0  0
   -0.2562   -0.1752   -0.0422 C   0  0  0  0  0  0  0  0  0  0  0  0
    0.4818    1.0300   -0.1738 C   0  0  0  0  0  0  0  0  0  0  0  0
   -0.1260    2.2464    0.1568 C   0  0  0  0  0  0  0  0  0  0  0  0
   -1.4436    2.2423    0.5964 C   0  0  0  0  0  0  0  0  0  0  0  0
   -2.1781    1.0590    0.7288 C   0  0  0  0  0  0  0  0  0  0  0  0
   -3.4810    0.9976    1.1582 O   0  0  0  0  0  0  0  0  0  0  0  0
   -4.0622    2.1885    1.6881 C   0  0  0  0  0  0  0  0  0  0  0  0
   -5.4483    1.8465    2.2340 C   0  0  0  0  0  0  0  0  0  0  0  0
   -6.1385    2.9980    2.7208 O   0  0  0  0  0  0  0  0  0  0  0  0
   -5.7436    3.3717    4.0336 C   0  0  0  0  0  0  0  0  0  0  0  0
    0.5081    3.4178    0.0700 N   0  0  0  0  0  0  0  0  0  0  0  0
    1.7794    3.3844   -0.3435 C   0  0  0  0  0  0  0  0  0  0  0  0
    2.4676    2.2935   -0.6847 N   0  0  0  0  0  0  0  0  0  0  0  0
    1.8205    1.1173   -0.6100 C   0  0  0  0  0  0  0  0  0  0  0  0
    2.4941   -0.0736   -0.9946 N   0  0  0  0  0  0  0  0  0  0  0  0
    3.8817   -0.2819   -1.1712 C   0  0  0  0  0  0  0  0  0  0  0  0
    4.3109   -1.3426   -1.9849 C   0  0  0  0  0  0  0  0  0  0  0  0
    5.6698   -1.6334   -2.1365 C   0  0  0  0  0  0  0  0  0  0  0  0
    6.6224   -0.8794   -1.4556 C   0  0  0  0  0  0  0  0  0  0  0  0
    6.2147    0.1551   -0.6134 C   0  0  0  0  0  0  0  0  0  0  0  0
    4.8524    0.4400   -0.4645 C   0  0  0  0  0  0  0  0  0  0  0  0
    7.1890    0.9178    0.1060 C   0  0  0  0  0  0  0  0  0  0  0  0
    8.0054    1.5598    0.7094 C   0  0  0  0  0  0  0  0  0  0  0  0
   -1.5592   -6.0876   -1.7689 H   0  0  0  0  0  0  0  0  0  0  0  0
   -3.0580   -5.1564   -1.9607 H   0  0  0  0  0  0  0  0  0  0  0  0
   -2.3024   -5.3366   -0.3415 H   0  0  0  0  0  0  0  0  0  0  0  0
   -3.0273   -2.8499   -1.5964 H   0  0  0  0  0  0  0  0  0  0  0  0
   -1.4993   -2.0436   -1.8602 H   0  0  0  0  0  0  0  0  0  0  0  0
   -2.4490   -3.2938    0.7604 H   0  0  0  0  0  0  0  0  0  0  0  0
   -0.8253   -2.7158    0.5837 H   0  0  0  0  0  0  0  0  0  0  0  0
    0.2411   -1.1086   -0.2824 H   0  0  0  0  0  0  0  0  0  0  0  0
   -1.8849    3.2062    0.8306 H   0  0  0  0  0  0  0  0  0  0  0  0
   -4.1632    2.9507    0.9054 H   0  0  0  0  0  0  0  0  0  0  0  0
   -3.4391    2.5901    2.4948 H   0  0  0  0  0  0  0  0  0  0  0  0
   -5.3900    1.0702    3.0069 H   0  0  0  0  0  0  0  0  0  0  0  0
   -6.0530    1.4216    1.4246 H   0  0  0  0  0  0  0  0  0  0  0  0
   -4.6917    3.6676    4.0573 H   0  0  0  0  0  0  0  0  0  0  0  0
   -5.9213    2.5545    4.7376 H   0  0  0  0  0  0  0  0  0  0  0  0
   -6.3483    4.2294    4.3395 H   0  0  0  0  0  0  0  0  0  0  0  0
    2.2998    4.3332   -0.4111 H   0  0  0  0  0  0  0  0  0  0  0  0
    1.9556   -0.5375   -1.7188 H   0  0  0  0  0  0  0  0  0  0  0  0
    3.5875   -1.9573   -2.5145 H   0  0  0  0  0  0  0  0  0  0  0  0
    5.9828   -2.4534   -2.7780 H   0  0  0  0  0  0  0  0  0  0  0  0
    7.6784   -1.1078   -1.5760 H   0  0  0  0  0  0  0  0  0  0  0  0
    4.5534    1.2325    0.2159 H   0  0  0  0  0  0  0  0  0  0  0  0
    8.7265    2.1290    1.2474 H   0  0  0  0  0  0  0  0  0  0  0  0
  1  2  1  0
  2  3  1  0
  3  4  1  0
  4  5  1  0
  5  6  1  0
  6  7  2  0
  7  8  1  0
  8  9  2  0
  9 10  1  0
 10 11  2  0
 11 12  1  0
 12 13  1  0
 13 14  1  0
 14 15  1  0
 15 16  1  0
  9 17  1  0
 17 18  2  0
 18 19  1  0
 19 20  2  0
 20 21  1  0
 21 22  1  0
 22 23  2  0
 23 24  1  0
 24 25  2  0
 25 26  1  0
 26 27  2  0
 26 28  1  0
 28 29  3  0
 11  6  1  0
 20  8  1  0
 27 22  1  0
  1 30  1  0
  1 31  1  0
  1 32  1  0
  3 33  1  0
  3 34  1  0
  4 35  1  0
  4 36  1  0
  7 37  1  0
 10 38  1  0
 13 39  1  0
 13 40  1  0
 14 41  1  0
 14 42  1  0
 16 43  1  0
 16 44  1  0
 16 45  1  0
 18 46  1  0
 21 47  1  0
 23 48  1  0
 24 49  1  0
 25 50  1  0
 27 51  1  0
 29 52  1  0
M  END
>  <energy_abs>  (183) 
60.00832708582022

>  <SMILES>  (183) 
COCCOc1cc2c(cc1OCCOC)ncnc2Nc3cccc(c3)C#C

>  <cluster_no>  (183) 
183

>  <fda_drugs_id>  (183) 
AAKJLRGGTJKAMG-UHFFFAOYSA-N

>  <initial_conformation_id>  (183) 
115

>  <minimize_method>  (183) 
MMFF

$$$$

     RDKit          3D

 52 54  0  0  0  0  0  0  0  0999 V2000
   -3.7850   -4.7729    0.3474 C   0  0  0  0  0  0  0  0  0  0  0  0
   -2.7324   -3.8202    0.4001 O   0  0  0  0  0  0  0  0  0  0  0  0
   -2.4419   -3.2811   -0.8939 C   0  0  0  0  0  0  0  0  0  0  0  0
   -1.4291   -2.1441   -0.7536 C   0  0  0  0  0  0  0  0  0  0  0  0
   -2.1231   -0.9682   -0.3291 O   0  0  0  0  0  0  0  0  0  0  0  0
   -1.3960    0.1671   -0.0877 C   0  0  0  0  0  0  0  0  0  0  0  0
   -0.0116    0.2705   -0.2317 C   0  0  0  0  0  0  0  0  0  0  0  0
    0.6653    1.4865    0.0470 C   0  0  0  0  0  0  0  0  0  0  0  0
   -0.0678    2.5931    0.4914 C   0  0  0  0  0  0  0  0  0  0  0  0
   -1.4454    2.4792    0.6246 C   0  0  0  0  0  0  0  0  0  0  0  0
   -2.1228    1.2883    0.3409 C   0  0  0  0  0  0  0  0  0  0  0  0
   -3.4824    1.1265    0.4385 O   0  0  0  0  0  0  0  0  0  0  0  0
   -4.2397    2.1773    1.0395 C   0  0  0  0  0  0  0  0  0  0  0  0
   -5.7120    1.7578    1.1178 C   0  0  0  0  0  0  0  0  0  0  0  0
   -5.9606    0.6173    1.9442 O   0  0  0  0  0  0  0  0  0  0  0  0
   -5.7222    0.8410    3.3250 C   0  0  0  0  0  0  0  0  0  0  0  0
    0.5009    3.7632    0.7930 N   0  0  0  0  0  0  0  0  0  0  0  0
    1.8290    3.8379    0.6613 C   0  0  0  0  0  0  0  0  0  0  0  0
    2.6353    2.8604    0.2429 N   0  0  0  0  0  0  0  0  0  0  0  0
    2.0563    1.6888   -0.0753 C   0  0  0  0  0  0  0  0  0  0  0  0
    2.8606    0.6271   -0.5742 N   0  0  0  0  0  0  0  0  0  0  0  0
    4.2682    0.4984   -0.5352 C   0  0  0  0  0  0  0  0  0  0  0  0
    5.0505    1.0520    0.4856 C   0  0  0  0  0  0  0  0  0  0  0  0
    6.4325    0.8448    0.5309 C   0  0  0  0  0  0  0  0  0  0  0  0
    7.0519    0.0548   -0.4348 C   0  0  0  0  0  0  0  0  0  0  0  0
    6.2862   -0.5371   -1.4378 C   0  0  0  0  0  0  0  0  0  0  0  0
    4.9032   -0.3260   -1.4784 C   0  0  0  0  0  0  0  0  0  0  0  0
    6.9124   -1.3663   -2.4218 C   0  0  0  0  0  0  0  0  0  0  0  0
    7.4384   -2.0619   -3.2473 C   0  0  0  0  0  0  0  0  0  0  0  0
   -3.9451   -5.1656    1.3551 H   0  0  0  0  0  0  0  0  0  0  0  0
   -4.7114   -4.3014    0.0056 H   0  0  0  0  0  0  0  0  0  0  0  0
   -3.5180   -5.6030   -0.3136 H   0  0  0  0  0  0  0  0  0  0  0  0
   -3.3651   -2.9144   -1.3570 H   0  0  0  0  0  0  0  0  0  0  0  0
   -2.0135   -4.0808   -1.5078 H   0  0  0  0  0  0  0  0  0  0  0  0
   -0.6674   -2.4201   -0.0153 H   0  0  0  0  0  0  0  0  0  0  0  0
   -0.9719   -1.9533   -1.7311 H   0  0  0  0  0  0  0  0  0  0  0  0
    0.5730   -0.5892   -0.5410 H   0  0  0  0  0  0  0  0  0  0  0  0
   -1.9794    3.3632    0.9579 H   0  0  0  0  0  0  0  0  0  0  0  0
   -3.8517    2.3924    2.0406 H   0  0  0  0  0  0  0  0  0  0  0  0
   -4.1751    3.0771    0.4165 H   0  0  0  0  0  0  0  0  0  0  0  0
   -6.3292    2.5939    1.4657 H   0  0  0  0  0  0  0  0  0  0  0  0
   -6.0584    1.4862    0.1146 H   0  0  0  0  0  0  0  0  0  0  0  0
   -4.6508    0.9232    3.5252 H   0  0  0  0  0  0  0  0  0  0  0  0
   -6.2448    1.7373    3.6723 H   0  0  0  0  0  0  0  0  0  0  0  0
   -6.1038   -0.0202    3.8806 H   0  0  0  0  0  0  0  0  0  0  0  0
    2.2956    4.7835    0.9148 H   0  0  0  0  0  0  0  0  0  0  0  0
    2.4890    0.3354   -1.4723 H   0  0  0  0  0  0  0  0  0  0  0  0
    4.5910    1.6508    1.2677 H   0  0  0  0  0  0  0  0  0  0  0  0
    7.0201    1.2957    1.3262 H   0  0  0  0  0  0  0  0  0  0  0  0
    8.1265   -0.1036   -0.3927 H   0  0  0  0  0  0  0  0  0  0  0  0
    4.3205   -0.8087   -2.2588 H   0  0  0  0  0  0  0  0  0  0  0  0
    7.9074   -2.6783   -3.9784 H   0  0  0  0  0  0  0  0  0  0  0  0
  1  2  1  0
  2  3  1  0
  3  4  1  0
  4  5  1  0
  5  6  1  0
  6  7  2  0
  7  8  1  0
  8  9  2  0
  9 10  1  0
 10 11  2  0
 11 12  1  0
 12 13  1  0
 13 14  1  0
 14 15  1  0
 15 16  1  0
  9 17  1  0
 17 18  2  0
 18 19  1  0
 19 20  2  0
 20 21  1  0
 21 22  1  0
 22 23  2  0
 23 24  1  0
 24 25  2  0
 25 26  1  0
 26 27  2  0
 26 28  1  0
 28 29  3  0
 11  6  1  0
 20  8  1  0
 27 22  1  0
  1 30  1  0
  1 31  1  0
  1 32  1  0
  3 33  1  0
  3 34  1  0
  4 35  1  0
  4 36  1  0
  7 37  1  0
 10 38  1  0
 13 39  1  0
 13 40  1  0
 14 41  1  0
 14 42  1  0
 16 43  1  0
 16 44  1  0
 16 45  1  0
 18 46  1  0
 21 47  1  0
 23 48  1  0
 24 49  1  0
 25 50  1  0
 27 51  1  0
 29 52  1  0
M  END
>  <energy_abs>  (184) 
62.09668188291521

>  <SMILES>  (184) 
COCCOc1cc2c(cc1OCCOC)ncnc2Nc3cccc(c3)C#C

>  <cluster_no>  (184) 
184

>  <fda_drugs_id>  (184) 
AAKJLRGGTJKAMG-UHFFFAOYSA-N

>  <initial_conformation_id>  (184) 
114

>  <minimize_method>  (184) 
MMFF

$$$$

     RDKit          3D

 52 54  0  0  0  0  0  0  0  0999 V2000
   -4.6704   -4.2979    0.4193 C   0  0  0  0  0  0  0  0  0  0  0  0
   -3.2817   -4.3251    0.7248 O   0  0  0  0  0  0  0  0  0  0  0  0
   -2.5195   -3.4142   -0.0670 C   0  0  0  0  0  0  0  0  0  0  0  0
   -2.5574   -1.9894    0.4873 C   0  0  0  0  0  0  0  0  0  0  0  0
   -1.7296   -1.1644   -0.3409 O   0  0  0  0  0  0  0  0  0  0  0  0
   -1.1517   -0.1111    0.3106 C   0  0  0  0  0  0  0  0  0  0  0  0
    0.1986    0.0977    0.0333 C   0  0  0  0  0  0  0  0  0  0  0  0
    0.9244    1.1447    0.6593 C   0  0  0  0  0  0  0  0  0  0  0  0
    0.2612    1.9999    1.5509 C   0  0  0  0  0  0  0  0  0  0  0  0
   -1.0898    1.7976    1.7925 C   0  0  0  0  0  0  0  0  0  0  0  0
   -1.8042    0.7750    1.1629 C   0  0  0  0  0  0  0  0  0  0  0  0
   -3.1408    0.6829    1.4438 O   0  0  0  0  0  0  0  0  0  0  0  0
   -3.9107    1.3088    0.4064 C   0  0  0  0  0  0  0  0  0  0  0  0
   -5.3567    1.4201    0.8792 C   0  0  0  0  0  0  0  0  0  0  0  0
   -6.1537    1.9810   -0.1627 O   0  0  0  0  0  0  0  0  0  0  0  0
   -7.5015    2.1633    0.2483 C   0  0  0  0  0  0  0  0  0  0  0  0
    0.8721    3.0114    2.1718 N   0  0  0  0  0  0  0  0  0  0  0  0
    2.1683    3.1885    1.8977 C   0  0  0  0  0  0  0  0  0  0  0  0
    2.9080    2.4463    1.0707 N   0  0  0  0  0  0  0  0  0  0  0  0
    2.2933    1.4184    0.4585 C   0  0  0  0  0  0  0  0  0  0  0  0
    3.0412    0.5720   -0.4064 N   0  0  0  0  0  0  0  0  0  0  0  0
    4.3333    0.7808   -0.9429 C   0  0  0  0  0  0  0  0  0  0  0  0
    4.8476    2.0556   -1.2086 C   0  0  0  0  0  0  0  0  0  0  0  0
    6.1023    2.2207   -1.8036 C   0  0  0  0  0  0  0  0  0  0  0  0
    6.8553    1.1062   -2.1666 C   0  0  0  0  0  0  0  0  0  0  0  0
    6.3460   -0.1724   -1.9458 C   0  0  0  0  0  0  0  0  0  0  0  0
    5.0891   -0.3310   -1.3494 C   0  0  0  0  0  0  0  0  0  0  0  0
    7.1046   -1.3231   -2.3339 C   0  0  0  0  0  0  0  0  0  0  0  0
    7.7413   -2.2878   -2.6604 C   0  0  0  0  0  0  0  0  0  0  0  0
   -4.8375   -4.5726   -0.6274 H   0  0  0  0  0  0  0  0  0  0  0  0
   -5.0984   -3.3124    0.6235 H   0  0  0  0  0  0  0  0  0  0  0  0
   -5.1752   -5.0273    1.0567 H   0  0  0  0  0  0  0  0  0  0  0  0
   -2.8380   -3.4432   -1.1167 H   0  0  0  0  0  0  0  0  0  0  0  0
   -1.4819   -3.7672   -0.0572 H   0  0  0  0  0  0  0  0  0  0  0  0
   -2.2196   -2.0027    1.5311 H   0  0  0  0  0  0  0  0  0  0  0  0
   -3.5843   -1.6145    0.4607 H   0  0  0  0  0  0  0  0  0  0  0  0
    0.6888   -0.5634   -0.6777 H   0  0  0  0  0  0  0  0  0  0  0  0
   -1.6076    2.4655    2.4771 H   0  0  0  0  0  0  0  0  0  0  0  0
   -3.5281    2.3122    0.1750 H   0  0  0  0  0  0  0  0  0  0  0  0
   -3.8713    0.7121   -0.5135 H   0  0  0  0  0  0  0  0  0  0  0  0
   -5.7397    0.4284    1.1505 H   0  0  0  0  0  0  0  0  0  0  0  0
   -5.4037    2.0518    1.7745 H   0  0  0  0  0  0  0  0  0  0  0  0
   -7.5509    2.8905    1.0650 H   0  0  0  0  0  0  0  0  0  0  0  0
   -8.0674    2.5530   -0.6013 H   0  0  0  0  0  0  0  0  0  0  0  0
   -7.9425    1.2121    0.5590 H   0  0  0  0  0  0  0  0  0  0  0  0
    2.6671    4.0124    2.3952 H   0  0  0  0  0  0  0  0  0  0  0  0
    2.9181   -0.3900   -0.1073 H   0  0  0  0  0  0  0  0  0  0  0  0
    4.2720    2.9438   -0.9614 H   0  0  0  0  0  0  0  0  0  0  0  0
    6.4846    3.2210   -1.9878 H   0  0  0  0  0  0  0  0  0  0  0  0
    7.8299    1.2416   -2.6299 H   0  0  0  0  0  0  0  0  0  0  0  0
    4.7015   -1.3356   -1.1998 H   0  0  0  0  0  0  0  0  0  0  0  0
    8.3088   -3.1423   -2.9479 H   0  0  0  0  0  0  0  0  0  0  0  0
  1  2  1  0
  2  3  1  0
  3  4  1  0
  4  5  1  0
  5  6  1  0
  6  7  2  0
  7  8  1  0
  8  9  2  0
  9 10  1  0
 10 11  2  0
 11 12  1  0
 12 13  1  0
 13 14  1  0
 14 15  1  0
 15 16  1  0
  9 17  1  0
 17 18  2  0
 18 19  1  0
 19 20  2  0
 20 21  1  0
 21 22  1  0
 22 23  2  0
 23 24  1  0
 24 25  2  0
 25 26  1  0
 26 27  2  0
 26 28  1  0
 28 29  3  0
 11  6  1  0
 20  8  1  0
 27 22  1  0
  1 30  1  0
  1 31  1  0
  1 32  1  0
  3 33  1  0
  3 34  1  0
  4 35  1  0
  4 36  1  0
  7 37  1  0
 10 38  1  0
 13 39  1  0
 13 40  1  0
 14 41  1  0
 14 42  1  0
 16 43  1  0
 16 44  1  0
 16 45  1  0
 18 46  1  0
 21 47  1  0
 23 48  1  0
 24 49  1  0
 25 50  1  0
 27 51  1  0
 29 52  1  0
M  END
>  <energy_abs>  (185) 
56.67453099364506

>  <SMILES>  (185) 
COCCOc1cc2c(cc1OCCOC)ncnc2Nc3cccc(c3)C#C

>  <cluster_no>  (185) 
185

>  <fda_drugs_id>  (185) 
AAKJLRGGTJKAMG-UHFFFAOYSA-N

>  <initial_conformation_id>  (185) 
113

>  <minimize_method>  (185) 
MMFF

$$$$

     RDKit          3D

 52 54  0  0  0  0  0  0  0  0999 V2000
   -3.4119   -5.8715    0.0736 C   0  0  0  0  0  0  0  0  0  0  0  0
   -2.7544   -4.7531    0.6552 O   0  0  0  0  0  0  0  0  0  0  0  0
   -2.6641   -3.6641   -0.2632 C   0  0  0  0  0  0  0  0  0  0  0  0
   -1.9685   -2.4868    0.4113 C   0  0  0  0  0  0  0  0  0  0  0  0
   -1.8417   -1.4254   -0.5438 O   0  0  0  0  0  0  0  0  0  0  0  0
   -1.3024   -0.3117    0.0470 C   0  0  0  0  0  0  0  0  0  0  0  0
    0.0517   -0.0643   -0.1642 C   0  0  0  0  0  0  0  0  0  0  0  0
    0.6626    1.0862    0.3855 C   0  0  0  0  0  0  0  0  0  0  0  0
   -0.1207    1.9910    1.1159 C   0  0  0  0  0  0  0  0  0  0  0  0
   -1.4773    1.7296    1.2937 C   0  0  0  0  0  0  0  0  0  0  0  0
   -2.0908    0.5912    0.7652 C   0  0  0  0  0  0  0  0  0  0  0  0
   -3.4182    0.2777    0.8718 O   0  0  0  0  0  0  0  0  0  0  0  0
   -4.2823    1.1393    1.6103 C   0  0  0  0  0  0  0  0  0  0  0  0
   -4.8223    2.2708    0.7392 C   0  0  0  0  0  0  0  0  0  0  0  0
   -5.6825    3.0968    1.5234 O   0  0  0  0  0  0  0  0  0  0  0  0
   -6.2184    4.1681    0.7574 C   0  0  0  0  0  0  0  0  0  0  0  0
    0.3804    3.1081    1.6474 N   0  0  0  0  0  0  0  0  0  0  0  0
    1.6819    3.3396    1.4469 C   0  0  0  0  0  0  0  0  0  0  0  0
    2.5282    2.5560    0.7749 N   0  0  0  0  0  0  0  0  0  0  0  0
    2.0252    1.4240    0.2515 C   0  0  0  0  0  0  0  0  0  0  0  0
    2.8865    0.5315   -0.4434 N   0  0  0  0  0  0  0  0  0  0  0  0
    4.2000    0.7600   -0.9140 C   0  0  0  0  0  0  0  0  0  0  0  0
    4.6558    2.0246   -1.3055 C   0  0  0  0  0  0  0  0  0  0  0  0
    5.9401    2.2004   -1.8297 C   0  0  0  0  0  0  0  0  0  0  0  0
    6.7830    1.1038   -1.9947 C   0  0  0  0  0  0  0  0  0  0  0  0
    6.3357   -0.1694   -1.6464 C   0  0  0  0  0  0  0  0  0  0  0  0
    5.0491   -0.3394   -1.1221 C   0  0  0  0  0  0  0  0  0  0  0  0
    7.1888   -1.3036   -1.8303 C   0  0  0  0  0  0  0  0  0  0  0  0
    7.9053   -2.2550   -1.9836 C   0  0  0  0  0  0  0  0  0  0  0  0
   -3.4549   -6.6708    0.8183 H   0  0  0  0  0  0  0  0  0  0  0  0
   -4.4338   -5.6078   -0.2158 H   0  0  0  0  0  0  0  0  0  0  0  0
   -2.8547   -6.2333   -0.7961 H   0  0  0  0  0  0  0  0  0  0  0  0
   -2.1000   -3.9707   -1.1524 H   0  0  0  0  0  0  0  0  0  0  0  0
   -3.6669   -3.3635   -0.5909 H   0  0  0  0  0  0  0  0  0  0  0  0
   -0.9764   -2.7995    0.7621 H   0  0  0  0  0  0  0  0  0  0  0  0
   -2.5510   -2.1783    1.2885 H   0  0  0  0  0  0  0  0  0  0  0  0
    0.6211   -0.7628   -0.7714 H   0  0  0  0  0  0  0  0  0  0  0  0
   -2.0426    2.4657    1.8573 H   0  0  0  0  0  0  0  0  0  0  0  0
   -3.8280    1.5010    2.5403 H   0  0  0  0  0  0  0  0  0  0  0  0
   -5.1303    0.5268    1.9413 H   0  0  0  0  0  0  0  0  0  0  0  0
   -5.3757    1.8506   -0.1094 H   0  0  0  0  0  0  0  0  0  0  0  0
   -4.0018    2.8726    0.3330 H   0  0  0  0  0  0  0  0  0  0  0  0
   -6.8699    4.7613    1.4044 H   0  0  0  0  0  0  0  0  0  0  0  0
   -5.4153    4.8115    0.3852 H   0  0  0  0  0  0  0  0  0  0  0  0
   -6.8113    3.7830   -0.0778 H   0  0  0  0  0  0  0  0  0  0  0  0
    2.0900    4.2500    1.8725 H   0  0  0  0  0  0  0  0  0  0  0  0
    2.7956   -0.3936   -0.0366 H   0  0  0  0  0  0  0  0  0  0  0  0
    4.0117    2.8949   -1.2127 H   0  0  0  0  0  0  0  0  0  0  0  0
    6.2755    3.1941   -2.1142 H   0  0  0  0  0  0  0  0  0  0  0  0
    7.7798    1.2475   -2.4037 H   0  0  0  0  0  0  0  0  0  0  0  0
    4.7121   -1.3420   -0.8709 H   0  0  0  0  0  0  0  0  0  0  0  0
    8.5423   -3.0976   -2.1197 H   0  0  0  0  0  0  0  0  0  0  0  0
  1  2  1  0
  2  3  1  0
  3  4  1  0
  4  5  1  0
  5  6  1  0
  6  7  2  0
  7  8  1  0
  8  9  2  0
  9 10  1  0
 10 11  2  0
 11 12  1  0
 12 13  1  0
 13 14  1  0
 14 15  1  0
 15 16  1  0
  9 17  1  0
 17 18  2  0
 18 19  1  0
 19 20  2  0
 20 21  1  0
 21 22  1  0
 22 23  2  0
 23 24  1  0
 24 25  2  0
 25 26  1  0
 26 27  2  0
 26 28  1  0
 28 29  3  0
 11  6  1  0
 20  8  1  0
 27 22  1  0
  1 30  1  0
  1 31  1  0
  1 32  1  0
  3 33  1  0
  3 34  1  0
  4 35  1  0
  4 36  1  0
  7 37  1  0
 10 38  1  0
 13 39  1  0
 13 40  1  0
 14 41  1  0
 14 42  1  0
 16 43  1  0
 16 44  1  0
 16 45  1  0
 18 46  1  0
 21 47  1  0
 23 48  1  0
 24 49  1  0
 25 50  1  0
 27 51  1  0
 29 52  1  0
M  END
>  <energy_abs>  (186) 
56.597727958876476

>  <SMILES>  (186) 
COCCOc1cc2c(cc1OCCOC)ncnc2Nc3cccc(c3)C#C

>  <cluster_no>  (186) 
186

>  <fda_drugs_id>  (186) 
AAKJLRGGTJKAMG-UHFFFAOYSA-N

>  <initial_conformation_id>  (186) 
112

>  <minimize_method>  (186) 
MMFF

$$$$

     RDKit          3D

 52 54  0  0  0  0  0  0  0  0999 V2000
   -4.0743   -4.7907   -0.3380 C   0  0  0  0  0  0  0  0  0  0  0  0
   -4.1836   -3.3784   -0.4507 O   0  0  0  0  0  0  0  0  0  0  0  0
   -2.9188   -2.7116   -0.4305 C   0  0  0  0  0  0  0  0  0  0  0  0
   -2.3601   -2.5561    0.9882 C   0  0  0  0  0  0  0  0  0  0  0  0
   -1.0901   -1.9042    1.0198 O   0  0  0  0  0  0  0  0  0  0  0  0
   -0.9761   -0.5833    0.6774 C   0  0  0  0  0  0  0  0  0  0  0  0
    0.3281   -0.2444    0.2967 C   0  0  0  0  0  0  0  0  0  0  0  0
    0.6676    1.0632   -0.1265 C   0  0  0  0  0  0  0  0  0  0  0  0
   -0.3276    2.0430   -0.1352 C   0  0  0  0  0  0  0  0  0  0  0  0
   -1.6128    1.7060    0.2757 C   0  0  0  0  0  0  0  0  0  0  0  0
   -1.9614    0.4116    0.6888 C   0  0  0  0  0  0  0  0  0  0  0  0
   -3.2049    0.0704    1.1371 O   0  0  0  0  0  0  0  0  0  0  0  0
   -4.2771    1.0125    1.0944 C   0  0  0  0  0  0  0  0  0  0  0  0
   -4.3291    1.8508    2.3725 C   0  0  0  0  0  0  0  0  0  0  0  0
   -5.3546    2.8431    2.3247 O   0  0  0  0  0  0  0  0  0  0  0  0
   -6.6426    2.3305    2.6387 C   0  0  0  0  0  0  0  0  0  0  0  0
   -0.0957    3.3016   -0.5146 N   0  0  0  0  0  0  0  0  0  0  0  0
    1.1522    3.5978   -0.8887 C   0  0  0  0  0  0  0  0  0  0  0  0
    2.1864    2.7553   -0.9185 N   0  0  0  0  0  0  0  0  0  0  0  0
    1.9483    1.4853   -0.5446 C   0  0  0  0  0  0  0  0  0  0  0  0
    3.0049    0.5346   -0.5756 N   0  0  0  0  0  0  0  0  0  0  0  0
    4.3953    0.7536   -0.7069 C   0  0  0  0  0  0  0  0  0  0  0  0
    5.0207    1.9402   -0.3065 C   0  0  0  0  0  0  0  0  0  0  0  0
    6.4082    2.0910   -0.3890 C   0  0  0  0  0  0  0  0  0  0  0  0
    7.1994    1.0403   -0.8452 C   0  0  0  0  0  0  0  0  0  0  0  0
    6.6019   -0.1647   -1.2104 C   0  0  0  0  0  0  0  0  0  0  0  0
    5.2118   -0.3081   -1.1308 C   0  0  0  0  0  0  0  0  0  0  0  0
    7.4105   -1.2582   -1.6537 C   0  0  0  0  0  0  0  0  0  0  0  0
    8.0923   -2.1766   -2.0194 C   0  0  0  0  0  0  0  0  0  0  0  0
   -3.4419   -5.1941   -1.1365 H   0  0  0  0  0  0  0  0  0  0  0  0
   -3.6777   -5.0752    0.6409 H   0  0  0  0  0  0  0  0  0  0  0  0
   -5.0762   -5.2189   -0.4402 H   0  0  0  0  0  0  0  0  0  0  0  0
   -3.0772   -1.7277   -0.8840 H   0  0  0  0  0  0  0  0  0  0  0  0
   -2.1983   -3.2252   -1.0805 H   0  0  0  0  0  0  0  0  0  0  0  0
   -2.1782   -3.5571    1.3960 H   0  0  0  0  0  0  0  0  0  0  0  0
   -3.0775   -2.1199    1.6908 H   0  0  0  0  0  0  0  0  0  0  0  0
    1.0930   -1.0179    0.3386 H   0  0  0  0  0  0  0  0  0  0  0  0
   -2.3410    2.5133    0.2742 H   0  0  0  0  0  0  0  0  0  0  0  0
   -5.1979    0.4218    1.0212 H   0  0  0  0  0  0  0  0  0  0  0  0
   -4.2710    1.6250    0.1855 H   0  0  0  0  0  0  0  0  0  0  0  0
   -3.3793    2.3799    2.5057 H   0  0  0  0  0  0  0  0  0  0  0  0
   -4.4402    1.2121    3.2581 H   0  0  0  0  0  0  0  0  0  0  0  0
   -6.6409    1.8710    3.6326 H   0  0  0  0  0  0  0  0  0  0  0  0
   -7.3496    3.1665    2.6457 H   0  0  0  0  0  0  0  0  0  0  0  0
   -6.9696    1.6072    1.8850 H   0  0  0  0  0  0  0  0  0  0  0  0
    1.3423    4.6200   -1.1978 H   0  0  0  0  0  0  0  0  0  0  0  0
    2.7063   -0.2768   -1.1056 H   0  0  0  0  0  0  0  0  0  0  0  0
    4.4361    2.7692    0.0832 H   0  0  0  0  0  0  0  0  0  0  0  0
    6.8682    3.0276   -0.0857 H   0  0  0  0  0  0  0  0  0  0  0  0
    8.2775    1.1631   -0.9023 H   0  0  0  0  0  0  0  0  0  0  0  0
    4.7661   -1.2614   -1.4039 H   0  0  0  0  0  0  0  0  0  0  0  0
    8.6971   -2.9890   -2.3491 H   0  0  0  0  0  0  0  0  0  0  0  0
  1  2  1  0
  2  3  1  0
  3  4  1  0
  4  5  1  0
  5  6  1  0
  6  7  2  0
  7  8  1  0
  8  9  2  0
  9 10  1  0
 10 11  2  0
 11 12  1  0
 12 13  1  0
 13 14  1  0
 14 15  1  0
 15 16  1  0
  9 17  1  0
 17 18  2  0
 18 19  1  0
 19 20  2  0
 20 21  1  0
 21 22  1  0
 22 23  2  0
 23 24  1  0
 24 25  2  0
 25 26  1  0
 26 27  2  0
 26 28  1  0
 28 29  3  0
 11  6  1  0
 20  8  1  0
 27 22  1  0
  1 30  1  0
  1 31  1  0
  1 32  1  0
  3 33  1  0
  3 34  1  0
  4 35  1  0
  4 36  1  0
  7 37  1  0
 10 38  1  0
 13 39  1  0
 13 40  1  0
 14 41  1  0
 14 42  1  0
 16 43  1  0
 16 44  1  0
 16 45  1  0
 18 46  1  0
 21 47  1  0
 23 48  1  0
 24 49  1  0
 25 50  1  0
 27 51  1  0
 29 52  1  0
M  END
>  <energy_abs>  (187) 
62.62229051012692

>  <SMILES>  (187) 
COCCOc1cc2c(cc1OCCOC)ncnc2Nc3cccc(c3)C#C

>  <cluster_no>  (187) 
187

>  <fda_drugs_id>  (187) 
AAKJLRGGTJKAMG-UHFFFAOYSA-N

>  <initial_conformation_id>  (187) 
111

>  <minimize_method>  (187) 
MMFF

$$$$

     RDKit          3D

 52 54  0  0  0  0  0  0  0  0999 V2000
   -2.3360   -5.2652   -1.5702 C   0  0  0  0  0  0  0  0  0  0  0  0
   -1.2170   -4.4691   -1.2018 O   0  0  0  0  0  0  0  0  0  0  0  0
   -1.4611   -3.6678   -0.0440 C   0  0  0  0  0  0  0  0  0  0  0  0
   -2.2481   -2.4014   -0.3809 C   0  0  0  0  0  0  0  0  0  0  0  0
   -2.3109   -1.5384    0.7577 O   0  0  0  0  0  0  0  0  0  0  0  0
   -1.6197   -0.3602    0.6398 C   0  0  0  0  0  0  0  0  0  0  0  0
   -0.3281   -0.2879    0.1181 C   0  0  0  0  0  0  0  0  0  0  0  0
    0.3614    0.9509    0.0481 C   0  0  0  0  0  0  0  0  0  0  0  0
   -0.2566    2.1119    0.5341 C   0  0  0  0  0  0  0  0  0  0  0  0
   -1.5385    2.0185    1.0604 C   0  0  0  0  0  0  0  0  0  0  0  0
   -2.2154    0.7970    1.1460 C   0  0  0  0  0  0  0  0  0  0  0  0
   -3.4947    0.6920    1.6249 O   0  0  0  0  0  0  0  0  0  0  0  0
   -3.7568    1.3790    2.8586 C   0  0  0  0  0  0  0  0  0  0  0  0
   -4.9159    2.3573    2.6624 C   0  0  0  0  0  0  0  0  0  0  0  0
   -4.4535    3.5232    1.9742 O   0  0  0  0  0  0  0  0  0  0  0  0
   -5.5198    4.4119    1.6649 C   0  0  0  0  0  0  0  0  0  0  0  0
    0.3396    3.3076    0.5139 N   0  0  0  0  0  0  0  0  0  0  0  0
    1.5785    3.3539    0.0143 C   0  0  0  0  0  0  0  0  0  0  0  0
    2.2687    2.3233   -0.4814 N   0  0  0  0  0  0  0  0  0  0  0  0
    1.6586    1.1251   -0.4776 C   0  0  0  0  0  0  0  0  0  0  0  0
    2.3254    0.0028   -1.0409 N   0  0  0  0  0  0  0  0  0  0  0  0
    3.6915   -0.1303   -1.3792 C   0  0  0  0  0  0  0  0  0  0  0  0
    4.0618   -1.0736   -2.3517 C   0  0  0  0  0  0  0  0  0  0  0  0
    5.4040   -1.2931   -2.6736 C   0  0  0  0  0  0  0  0  0  0  0  0
    6.4023   -0.5892   -2.0054 C   0  0  0  0  0  0  0  0  0  0  0  0
    6.0570    0.3263   -1.0114 C   0  0  0  0  0  0  0  0  0  0  0  0
    4.7108    0.5446   -0.6955 C   0  0  0  0  0  0  0  0  0  0  0  0
    7.0830    1.0211   -0.2954 C   0  0  0  0  0  0  0  0  0  0  0  0
    7.9481    1.5844    0.3209 C   0  0  0  0  0  0  0  0  0  0  0  0
   -3.1928   -4.6399   -1.8329 H   0  0  0  0  0  0  0  0  0  0  0  0
   -2.6029   -5.9517   -0.7595 H   0  0  0  0  0  0  0  0  0  0  0  0
   -2.0620   -5.8541   -2.4494 H   0  0  0  0  0  0  0  0  0  0  0  0
   -0.4842   -3.3909    0.3669 H   0  0  0  0  0  0  0  0  0  0  0  0
   -1.9622   -4.2495    0.7396 H   0  0  0  0  0  0  0  0  0  0  0  0
   -3.2815   -2.6722   -0.6281 H   0  0  0  0  0  0  0  0  0  0  0  0
   -1.8545   -1.9133   -1.2814 H   0  0  0  0  0  0  0  0  0  0  0  0
    0.1718   -1.1944   -0.2117 H   0  0  0  0  0  0  0  0  0  0  0  0
   -2.0187    2.9349    1.3962 H   0  0  0  0  0  0  0  0  0  0  0  0
   -2.8757    1.8840    3.2710 H   0  0  0  0  0  0  0  0  0  0  0  0
   -4.0591    0.6097    3.5781 H   0  0  0  0  0  0  0  0  0  0  0  0
   -5.3062    2.6644    3.6380 H   0  0  0  0  0  0  0  0  0  0  0  0
   -5.7134    1.8829    2.0806 H   0  0  0  0  0  0  0  0  0  0  0  0
   -5.1038    5.2822    1.1488 H   0  0  0  0  0  0  0  0  0  0  0  0
   -6.2425    3.9266    0.9989 H   0  0  0  0  0  0  0  0  0  0  0  0
   -6.0180    4.7497    2.5817 H   0  0  0  0  0  0  0  0  0  0  0  0
    2.0691    4.3211    0.0078 H   0  0  0  0  0  0  0  0  0  0  0  0
    1.7279   -0.4107   -1.7493 H   0  0  0  0  0  0  0  0  0  0  0  0
    3.3025   -1.6504   -2.8746 H   0  0  0  0  0  0  0  0  0  0  0  0
    5.6696   -2.0194   -3.4379 H   0  0  0  0  0  0  0  0  0  0  0  0
    7.4464   -0.7657   -2.2540 H   0  0  0  0  0  0  0  0  0  0  0  0
    4.4626    1.2430    0.1005 H   0  0  0  0  0  0  0  0  0  0  0  0
    8.7072    2.0972    0.8614 H   0  0  0  0  0  0  0  0  0  0  0  0
  1  2  1  0
  2  3  1  0
  3  4  1  0
  4  5  1  0
  5  6  1  0
  6  7  2  0
  7  8  1  0
  8  9  2  0
  9 10  1  0
 10 11  2  0
 11 12  1  0
 12 13  1  0
 13 14  1  0
 14 15  1  0
 15 16  1  0
  9 17  1  0
 17 18  2  0
 18 19  1  0
 19 20  2  0
 20 21  1  0
 21 22  1  0
 22 23  2  0
 23 24  1  0
 24 25  2  0
 25 26  1  0
 26 27  2  0
 26 28  1  0
 28 29  3  0
 11  6  1  0
 20  8  1  0
 27 22  1  0
  1 30  1  0
  1 31  1  0
  1 32  1  0
  3 33  1  0
  3 34  1  0
  4 35  1  0
  4 36  1  0
  7 37  1  0
 10 38  1  0
 13 39  1  0
 13 40  1  0
 14 41  1  0
 14 42  1  0
 16 43  1  0
 16 44  1  0
 16 45  1  0
 18 46  1  0
 21 47  1  0
 23 48  1  0
 24 49  1  0
 25 50  1  0
 27 51  1  0
 29 52  1  0
M  END
>  <energy_abs>  (188) 
61.66009366942744

>  <SMILES>  (188) 
COCCOc1cc2c(cc1OCCOC)ncnc2Nc3cccc(c3)C#C

>  <cluster_no>  (188) 
188

>  <fda_drugs_id>  (188) 
AAKJLRGGTJKAMG-UHFFFAOYSA-N

>  <initial_conformation_id>  (188) 
110

>  <minimize_method>  (188) 
MMFF

$$$$

     RDKit          3D

 52 54  0  0  0  0  0  0  0  0999 V2000
   -1.2062   -5.4948    0.0854 C   0  0  0  0  0  0  0  0  0  0  0  0
   -1.7895   -4.7951   -1.0061 O   0  0  0  0  0  0  0  0  0  0  0  0
   -2.4488   -3.5929   -0.6074 C   0  0  0  0  0  0  0  0  0  0  0  0
   -1.4744   -2.4224   -0.4825 C   0  0  0  0  0  0  0  0  0  0  0  0
   -2.2130   -1.2555   -0.1276 O   0  0  0  0  0  0  0  0  0  0  0  0
   -1.5174   -0.0954    0.0955 C   0  0  0  0  0  0  0  0  0  0  0  0
   -0.1502    0.0670   -0.1331 C   0  0  0  0  0  0  0  0  0  0  0  0
    0.4927    1.3056    0.1229 C   0  0  0  0  0  0  0  0  0  0  0  0
   -0.2548    2.3736    0.6321 C   0  0  0  0  0  0  0  0  0  0  0  0
   -1.6165    2.2012    0.8481 C   0  0  0  0  0  0  0  0  0  0  0  0
   -2.2637    0.9911    0.5779 C   0  0  0  0  0  0  0  0  0  0  0  0
   -3.6001    0.7566    0.7791 O   0  0  0  0  0  0  0  0  0  0  0  0
   -4.4694    1.8586    1.0328 C   0  0  0  0  0  0  0  0  0  0  0  0
   -4.6470    2.0815    2.5348 C   0  0  0  0  0  0  0  0  0  0  0  0
   -5.4476    3.2292    2.8184 O   0  0  0  0  0  0  0  0  0  0  0  0
   -6.8418    2.9810    2.6944 C   0  0  0  0  0  0  0  0  0  0  0  0
    0.2869    3.5587    0.9231 N   0  0  0  0  0  0  0  0  0  0  0  0
    1.6002    3.6897    0.7115 C   0  0  0  0  0  0  0  0  0  0  0  0
    2.4164    2.7525    0.2251 N   0  0  0  0  0  0  0  0  0  0  0  0
    1.8645    1.5650   -0.0805 C   0  0  0  0  0  0  0  0  0  0  0  0
    2.6763    0.5433   -0.6465 N   0  0  0  0  0  0  0  0  0  0  0  0
    4.0876    0.4657   -0.6903 C   0  0  0  0  0  0  0  0  0  0  0  0
    4.9077    1.0331    0.2926 C   0  0  0  0  0  0  0  0  0  0  0  0
    6.2964    0.8744    0.2557 C   0  0  0  0  0  0  0  0  0  0  0  0
    6.8862    0.1193   -0.7553 C   0  0  0  0  0  0  0  0  0  0  0  0
    6.0850   -0.4863   -1.7217 C   0  0  0  0  0  0  0  0  0  0  0  0
    4.6955   -0.3236   -1.6803 C   0  0  0  0  0  0  0  0  0  0  0  0
    6.6816   -1.2803   -2.7520 C   0  0  0  0  0  0  0  0  0  0  0  0
    7.1824   -1.9463   -3.6167 C   0  0  0  0  0  0  0  0  0  0  0  0
   -1.9719   -5.7725    0.8161 H   0  0  0  0  0  0  0  0  0  0  0  0
   -0.7484   -6.4096   -0.3008 H   0  0  0  0  0  0  0  0  0  0  0  0
   -0.4273   -4.8955    0.5642 H   0  0  0  0  0  0  0  0  0  0  0  0
   -3.0157   -3.7418    0.3200 H   0  0  0  0  0  0  0  0  0  0  0  0
   -3.1896   -3.3557   -1.3798 H   0  0  0  0  0  0  0  0  0  0  0  0
   -0.9656   -2.2807   -1.4438 H   0  0  0  0  0  0  0  0  0  0  0  0
   -0.7243   -2.6448    0.2849 H   0  0  0  0  0  0  0  0  0  0  0  0
    0.4482   -0.7608   -0.4987 H   0  0  0  0  0  0  0  0  0  0  0  0
   -2.1567    3.0521    1.2524 H   0  0  0  0  0  0  0  0  0  0  0  0
   -4.1736    2.7728    0.5046 H   0  0  0  0  0  0  0  0  0  0  0  0
   -5.4382    1.5897    0.5969 H   0  0  0  0  0  0  0  0  0  0  0  0
   -3.6706    2.2504    3.0006 H   0  0  0  0  0  0  0  0  0  0  0  0
   -5.0580    1.1877    3.0204 H   0  0  0  0  0  0  0  0  0  0  0  0
   -7.1058    2.7395    1.6615 H   0  0  0  0  0  0  0  0  0  0  0  0
   -7.3770    3.8902    2.9816 H   0  0  0  0  0  0  0  0  0  0  0  0
   -7.1500    2.1717    3.3632 H   0  0  0  0  0  0  0  0  0  0  0  0
    2.0440    4.6489    0.9549 H   0  0  0  0  0  0  0  0  0  0  0  0
    2.2657    0.2581   -1.5301 H   0  0  0  0  0  0  0  0  0  0  0  0
    4.4739    1.6058    1.1082 H   0  0  0  0  0  0  0  0  0  0  0  0
    6.9130    1.3360    1.0224 H   0  0  0  0  0  0  0  0  0  0  0  0
    7.9663   -0.0011   -0.7773 H   0  0  0  0  0  0  0  0  0  0  0  0
    4.0859   -0.8165   -2.4335 H   0  0  0  0  0  0  0  0  0  0  0  0
    7.6284   -2.5363   -4.3832 H   0  0  0  0  0  0  0  0  0  0  0  0
  1  2  1  0
  2  3  1  0
  3  4  1  0
  4  5  1  0
  5  6  1  0
  6  7  2  0
  7  8  1  0
  8  9  2  0
  9 10  1  0
 10 11  2  0
 11 12  1  0
 12 13  1  0
 13 14  1  0
 14 15  1  0
 15 16  1  0
  9 17  1  0
 17 18  2  0
 18 19  1  0
 19 20  2  0
 20 21  1  0
 21 22  1  0
 22 23  2  0
 23 24  1  0
 24 25  2  0
 25 26  1  0
 26 27  2  0
 26 28  1  0
 28 29  3  0
 11  6  1  0
 20  8  1  0
 27 22  1  0
  1 30  1  0
  1 31  1  0
  1 32  1  0
  3 33  1  0
  3 34  1  0
  4 35  1  0
  4 36  1  0
  7 37  1  0
 10 38  1  0
 13 39  1  0
 13 40  1  0
 14 41  1  0
 14 42  1  0
 16 43  1  0
 16 44  1  0
 16 45  1  0
 18 46  1  0
 21 47  1  0
 23 48  1  0
 24 49  1  0
 25 50  1  0
 27 51  1  0
 29 52  1  0
M  END
>  <energy_abs>  (189) 
60.28993395746765

>  <SMILES>  (189) 
COCCOc1cc2c(cc1OCCOC)ncnc2Nc3cccc(c3)C#C

>  <cluster_no>  (189) 
189

>  <fda_drugs_id>  (189) 
AAKJLRGGTJKAMG-UHFFFAOYSA-N

>  <initial_conformation_id>  (189) 
109

>  <minimize_method>  (189) 
MMFF

$$$$

     RDKit          3D

 52 54  0  0  0  0  0  0  0  0999 V2000
   -3.9976   -3.9988    1.7475 C   0  0  0  0  0  0  0  0  0  0  0  0
   -3.5310   -4.3015    0.4390 O   0  0  0  0  0  0  0  0  0  0  0  0
   -3.2711   -3.1388   -0.3469 C   0  0  0  0  0  0  0  0  0  0  0  0
   -1.9303   -2.4929   -0.0044 C   0  0  0  0  0  0  0  0  0  0  0  0
   -1.6820   -1.4181   -0.9211 O   0  0  0  0  0  0  0  0  0  0  0  0
   -1.1735   -0.3217   -0.2802 C   0  0  0  0  0  0  0  0  0  0  0  0
    0.1768   -0.0392   -0.4586 C   0  0  0  0  0  0  0  0  0  0  0  0
    0.7573    1.1020    0.1462 C   0  0  0  0  0  0  0  0  0  0  0  0
   -0.0442    1.9427    0.9331 C   0  0  0  0  0  0  0  0  0  0  0  0
   -1.3963    1.6492    1.0786 C   0  0  0  0  0  0  0  0  0  0  0  0
   -1.9802    0.5418    0.4589 C   0  0  0  0  0  0  0  0  0  0  0  0
   -3.3013    0.2137    0.6022 O   0  0  0  0  0  0  0  0  0  0  0  0
   -4.2200    1.3019    0.4626 C   0  0  0  0  0  0  0  0  0  0  0  0
   -4.9624    1.5240    1.7760 C   0  0  0  0  0  0  0  0  0  0  0  0
   -5.8717    2.6125    1.6264 O   0  0  0  0  0  0  0  0  0  0  0  0
   -6.5917    2.8629    2.8269 C   0  0  0  0  0  0  0  0  0  0  0  0
    0.4381    3.0194    1.5569 N   0  0  0  0  0  0  0  0  0  0  0  0
    1.7420    3.2708    1.3999 C   0  0  0  0  0  0  0  0  0  0  0  0
    2.6030    2.5528    0.6752 N   0  0  0  0  0  0  0  0  0  0  0  0
    2.1138    1.4731    0.0397 C   0  0  0  0  0  0  0  0  0  0  0  0
    2.9775    0.6791   -0.7607 N   0  0  0  0  0  0  0  0  0  0  0  0
    4.3891    0.6694   -0.8179 C   0  0  0  0  0  0  0  0  0  0  0  0
    5.1994    1.0583    0.2557 C   0  0  0  0  0  0  0  0  0  0  0  0
    6.5928    0.9613    0.1844 C   0  0  0  0  0  0  0  0  0  0  0  0
    7.1994    0.4458   -0.9579 C   0  0  0  0  0  0  0  0  0  0  0  0
    6.4103    0.0178   -2.0243 C   0  0  0  0  0  0  0  0  0  0  0  0
    5.0164    0.1204   -1.9477 C   0  0  0  0  0  0  0  0  0  0  0  0
    7.0227   -0.5390   -3.1914 C   0  0  0  0  0  0  0  0  0  0  0  0
    7.5332   -1.0145   -4.1687 C   0  0  0  0  0  0  0  0  0  0  0  0
   -3.2373   -3.4630    2.3223 H   0  0  0  0  0  0  0  0  0  0  0  0
   -4.2096   -4.9403    2.2604 H   0  0  0  0  0  0  0  0  0  0  0  0
   -4.9204   -3.4115    1.7036 H   0  0  0  0  0  0  0  0  0  0  0  0
   -4.0949   -2.4200   -0.2631 H   0  0  0  0  0  0  0  0  0  0  0  0
   -3.2532   -3.4553   -1.3954 H   0  0  0  0  0  0  0  0  0  0  0  0
   -1.1276   -3.2312   -0.1198 H   0  0  0  0  0  0  0  0  0  0  0  0
   -1.9126   -2.1765    1.0455 H   0  0  0  0  0  0  0  0  0  0  0  0
    0.7768   -0.7233   -1.0530 H   0  0  0  0  0  0  0  0  0  0  0  0
   -1.9925    2.3072    1.7059 H   0  0  0  0  0  0  0  0  0  0  0  0
   -4.9432    1.0199   -0.3120 H   0  0  0  0  0  0  0  0  0  0  0  0
   -3.7584    2.2307    0.1032 H   0  0  0  0  0  0  0  0  0  0  0  0
   -4.2509    1.7390    2.5814 H   0  0  0  0  0  0  0  0  0  0  0  0
   -5.5085    0.6133    2.0500 H   0  0  0  0  0  0  0  0  0  0  0  0
   -5.9051    3.1296    3.6362 H   0  0  0  0  0  0  0  0  0  0  0  0
   -7.1848    1.9876    3.1074 H   0  0  0  0  0  0  0  0  0  0  0  0
   -7.2698    3.7024    2.6531 H   0  0  0  0  0  0  0  0  0  0  0  0
    2.1386    4.1428    1.9085 H   0  0  0  0  0  0  0  0  0  0  0  0
    2.5673    0.5649   -1.6822 H   0  0  0  0  0  0  0  0  0  0  0  0
    4.7569    1.4403    1.1711 H   0  0  0  0  0  0  0  0  0  0  0  0
    7.2005    1.2832    1.0266 H   0  0  0  0  0  0  0  0  0  0  0  0
    8.2827    0.3695   -1.0051 H   0  0  0  0  0  0  0  0  0  0  0  0
    4.4174   -0.2324   -2.7835 H   0  0  0  0  0  0  0  0  0  0  0  0
    7.9853   -1.4398   -5.0342 H   0  0  0  0  0  0  0  0  0  0  0  0
  1  2  1  0
  2  3  1  0
  3  4  1  0
  4  5  1  0
  5  6  1  0
  6  7  2  0
  7  8  1  0
  8  9  2  0
  9 10  1  0
 10 11  2  0
 11 12  1  0
 12 13  1  0
 13 14  1  0
 14 15  1  0
 15 16  1  0
  9 17  1  0
 17 18  2  0
 18 19  1  0
 19 20  2  0
 20 21  1  0
 21 22  1  0
 22 23  2  0
 23 24  1  0
 24 25  2  0
 25 26  1  0
 26 27  2  0
 26 28  1  0
 28 29  3  0
 11  6  1  0
 20  8  1  0
 27 22  1  0
  1 30  1  0
  1 31  1  0
  1 32  1  0
  3 33  1  0
  3 34  1  0
  4 35  1  0
  4 36  1  0
  7 37  1  0
 10 38  1  0
 13 39  1  0
 13 40  1  0
 14 41  1  0
 14 42  1  0
 16 43  1  0
 16 44  1  0
 16 45  1  0
 18 46  1  0
 21 47  1  0
 23 48  1  0
 24 49  1  0
 25 50  1  0
 27 51  1  0
 29 52  1  0
M  END
>  <energy_abs>  (190) 
58.52316120426076

>  <SMILES>  (190) 
COCCOc1cc2c(cc1OCCOC)ncnc2Nc3cccc(c3)C#C

>  <cluster_no>  (190) 
190

>  <fda_drugs_id>  (190) 
AAKJLRGGTJKAMG-UHFFFAOYSA-N

>  <initial_conformation_id>  (190) 
108

>  <minimize_method>  (190) 
MMFF

$$$$

     RDKit          3D

 52 54  0  0  0  0  0  0  0  0999 V2000
   -3.0524   -3.7854    1.7438 C   0  0  0  0  0  0  0  0  0  0  0  0
   -2.1303   -4.5043    0.9342 O   0  0  0  0  0  0  0  0  0  0  0  0
   -1.1436   -3.6726    0.3147 C   0  0  0  0  0  0  0  0  0  0  0  0
   -1.7145   -2.7514   -0.7681 C   0  0  0  0  0  0  0  0  0  0  0  0
   -2.3113   -1.5826   -0.1980 O   0  0  0  0  0  0  0  0  0  0  0  0
   -1.5620   -0.4456   -0.0496 C   0  0  0  0  0  0  0  0  0  0  0  0
   -0.1685   -0.3993   -0.0985 C   0  0  0  0  0  0  0  0  0  0  0  0
    0.5299    0.8223    0.0831 C   0  0  0  0  0  0  0  0  0  0  0  0
   -0.1929    2.0004    0.3019 C   0  0  0  0  0  0  0  0  0  0  0  0
   -1.5794    1.9385    0.3622 C   0  0  0  0  0  0  0  0  0  0  0  0
   -2.2770    0.7379    0.1941 C   0  0  0  0  0  0  0  0  0  0  0  0
   -3.6411    0.6086    0.2581 O   0  0  0  0  0  0  0  0  0  0  0  0
   -4.4532    1.7798    0.3087 C   0  0  0  0  0  0  0  0  0  0  0  0
   -4.7282    2.1978    1.7505 C   0  0  0  0  0  0  0  0  0  0  0  0
   -5.5316    3.3773    1.7539 O   0  0  0  0  0  0  0  0  0  0  0  0
   -5.8305    3.8024    3.0772 C   0  0  0  0  0  0  0  0  0  0  0  0
    0.3950    3.1885    0.4620 N   0  0  0  0  0  0  0  0  0  0  0  0
    1.7297    3.2149    0.3920 C   0  0  0  0  0  0  0  0  0  0  0  0
    2.5279    2.1634    0.1974 N   0  0  0  0  0  0  0  0  0  0  0  0
    1.9327    0.9666    0.0534 C   0  0  0  0  0  0  0  0  0  0  0  0
    2.7371   -0.1962   -0.1032 N   0  0  0  0  0  0  0  0  0  0  0  0
    4.1081   -0.2698   -0.4436 C   0  0  0  0  0  0  0  0  0  0  0  0
    4.8410   -1.4083   -0.0709 C   0  0  0  0  0  0  0  0  0  0  0  0
    6.1797   -1.5594   -0.4426 C   0  0  0  0  0  0  0  0  0  0  0  0
    6.8006   -0.5829   -1.2178 C   0  0  0  0  0  0  0  0  0  0  0  0
    6.0785    0.5365   -1.6304 C   0  0  0  0  0  0  0  0  0  0  0  0
    4.7382    0.6826   -1.2552 C   0  0  0  0  0  0  0  0  0  0  0  0
    6.7059    1.5302   -2.4472 C   0  0  0  0  0  0  0  0  0  0  0  0
    7.2311    2.3645   -3.1328 C   0  0  0  0  0  0  0  0  0  0  0  0
   -3.7584   -3.2291    1.1220 H   0  0  0  0  0  0  0  0  0  0  0  0
   -3.6226   -4.5099    2.3319 H   0  0  0  0  0  0  0  0  0  0  0  0
   -2.5321   -3.1128    2.4323 H   0  0  0  0  0  0  0  0  0  0  0  0
   -0.4317   -4.3584   -0.1560 H   0  0  0  0  0  0  0  0  0  0  0  0
   -0.6068   -3.1170    1.0911 H   0  0  0  0  0  0  0  0  0  0  0  0
   -0.9585   -2.4869   -1.5158 H   0  0  0  0  0  0  0  0  0  0  0  0
   -2.5137   -3.2758   -1.3042 H   0  0  0  0  0  0  0  0  0  0  0  0
    0.4070   -1.2994   -0.2832 H   0  0  0  0  0  0  0  0  0  0  0  0
   -2.0998    2.8722    0.5526 H   0  0  0  0  0  0  0  0  0  0  0  0
   -5.4097    1.5222   -0.1627 H   0  0  0  0  0  0  0  0  0  0  0  0
   -4.0597    2.6010   -0.3021 H   0  0  0  0  0  0  0  0  0  0  0  0
   -5.2477    1.3874    2.2762 H   0  0  0  0  0  0  0  0  0  0  0  0
   -3.7901    2.3883    2.2836 H   0  0  0  0  0  0  0  0  0  0  0  0
   -4.9107    4.0415    3.6196 H   0  0  0  0  0  0  0  0  0  0  0  0
   -6.3929    3.0295    3.6099 H   0  0  0  0  0  0  0  0  0  0  0  0
   -6.4458    4.7042    3.0183 H   0  0  0  0  0  0  0  0  0  0  0  0
    2.2097    4.1805    0.5086 H   0  0  0  0  0  0  0  0  0  0  0  0
    2.5100   -0.8458    0.6427 H   0  0  0  0  0  0  0  0  0  0  0  0
    4.3765   -2.1928    0.5210 H   0  0  0  0  0  0  0  0  0  0  0  0
    6.7348   -2.4408   -0.1325 H   0  0  0  0  0  0  0  0  0  0  0  0
    7.8416   -0.7042   -1.5068 H   0  0  0  0  0  0  0  0  0  0  0  0
    4.1846    1.5488   -1.6085 H   0  0  0  0  0  0  0  0  0  0  0  0
    7.6945    3.1061   -3.7405 H   0  0  0  0  0  0  0  0  0  0  0  0
  1  2  1  0
  2  3  1  0
  3  4  1  0
  4  5  1  0
  5  6  1  0
  6  7  2  0
  7  8  1  0
  8  9  2  0
  9 10  1  0
 10 11  2  0
 11 12  1  0
 12 13  1  0
 13 14  1  0
 14 15  1  0
 15 16  1  0
  9 17  1  0
 17 18  2  0
 18 19  1  0
 19 20  2  0
 20 21  1  0
 21 22  1  0
 22 23  2  0
 23 24  1  0
 24 25  2  0
 25 26  1  0
 26 27  2  0
 26 28  1  0
 28 29  3  0
 11  6  1  0
 20  8  1  0
 27 22  1  0
  1 30  1  0
  1 31  1  0
  1 32  1  0
  3 33  1  0
  3 34  1  0
  4 35  1  0
  4 36  1  0
  7 37  1  0
 10 38  1  0
 13 39  1  0
 13 40  1  0
 14 41  1  0
 14 42  1  0
 16 43  1  0
 16 44  1  0
 16 45  1  0
 18 46  1  0
 21 47  1  0
 23 48  1  0
 24 49  1  0
 25 50  1  0
 27 51  1  0
 29 52  1  0
M  END
>  <energy_abs>  (191) 
61.46904351534843

>  <SMILES>  (191) 
COCCOc1cc2c(cc1OCCOC)ncnc2Nc3cccc(c3)C#C

>  <cluster_no>  (191) 
191

>  <fda_drugs_id>  (191) 
AAKJLRGGTJKAMG-UHFFFAOYSA-N

>  <initial_conformation_id>  (191) 
107

>  <minimize_method>  (191) 
MMFF

$$$$

     RDKit          3D

 52 54  0  0  0  0  0  0  0  0999 V2000
   -2.6461   -5.3077   -0.2757 C   0  0  0  0  0  0  0  0  0  0  0  0
   -2.2764   -4.8872    1.0319 O   0  0  0  0  0  0  0  0  0  0  0  0
   -2.6771   -3.5467    1.3177 C   0  0  0  0  0  0  0  0  0  0  0  0
   -1.6506   -2.5282    0.8238 C   0  0  0  0  0  0  0  0  0  0  0  0
   -2.1170   -1.2203    1.1595 O   0  0  0  0  0  0  0  0  0  0  0  0
   -1.4933   -0.1753    0.5354 C   0  0  0  0  0  0  0  0  0  0  0  0
   -0.1614   -0.1983    0.1205 C   0  0  0  0  0  0  0  0  0  0  0  0
    0.4219    0.9150   -0.5454 C   0  0  0  0  0  0  0  0  0  0  0  0
   -0.3478    2.0643   -0.7719 C   0  0  0  0  0  0  0  0  0  0  0  0
   -1.6645    2.0797   -0.3379 C   0  0  0  0  0  0  0  0  0  0  0  0
   -2.2318    0.9914    0.3293 C   0  0  0  0  0  0  0  0  0  0  0  0
   -3.5502    1.1270    0.6817 O   0  0  0  0  0  0  0  0  0  0  0  0
   -3.7566    1.0038    2.0990 C   0  0  0  0  0  0  0  0  0  0  0  0
   -4.9360    1.8912    2.4955 C   0  0  0  0  0  0  0  0  0  0  0  0
   -4.5270    3.2638    2.4813 O   0  0  0  0  0  0  0  0  0  0  0  0
   -5.6134    4.1375    2.7580 C   0  0  0  0  0  0  0  0  0  0  0  0
    0.1355    3.1489   -1.3830 N   0  0  0  0  0  0  0  0  0  0  0  0
    1.4147    3.1042   -1.7660 C   0  0  0  0  0  0  0  0  0  0  0  0
    2.2478    2.0734   -1.6092 N   0  0  0  0  0  0  0  0  0  0  0  0
    1.7535    0.9767   -1.0082 C   0  0  0  0  0  0  0  0  0  0  0  0
    2.5863   -0.1655   -0.8498 N   0  0  0  0  0  0  0  0  0  0  0  0
    3.9922   -0.2557   -0.9748 C   0  0  0  0  0  0  0  0  0  0  0  0
    4.5699   -1.5094   -1.2345 C   0  0  0  0  0  0  0  0  0  0  0  0
    5.9571   -1.6683   -1.2988 C   0  0  0  0  0  0  0  0  0  0  0  0
    6.7927   -0.5757   -1.0794 C   0  0  0  0  0  0  0  0  0  0  0  0
    6.2398    0.6698   -0.7828 C   0  0  0  0  0  0  0  0  0  0  0  0
    4.8500    0.8222   -0.7178 C   0  0  0  0  0  0  0  0  0  0  0  0
    7.0953    1.7904   -0.5356 C   0  0  0  0  0  0  0  0  0  0  0  0
    7.8114    2.7333   -0.3334 C   0  0  0  0  0  0  0  0  0  0  0  0
   -2.1612   -4.6905   -1.0365 H   0  0  0  0  0  0  0  0  0  0  0  0
   -3.7335   -5.2717   -0.3977 H   0  0  0  0  0  0  0  0  0  0  0  0
   -2.3171   -6.3430   -0.4075 H   0  0  0  0  0  0  0  0  0  0  0  0
   -2.7665   -3.4572    2.4066 H   0  0  0  0  0  0  0  0  0  0  0  0
   -3.6757   -3.3357    0.9138 H   0  0  0  0  0  0  0  0  0  0  0  0
   -0.6890   -2.7275    1.3114 H   0  0  0  0  0  0  0  0  0  0  0  0
   -1.5196   -2.6274   -0.2602 H   0  0  0  0  0  0  0  0  0  0  0  0
    0.4567   -1.0665    0.3280 H   0  0  0  0  0  0  0  0  0  0  0  0
   -2.2678    2.9697   -0.5058 H   0  0  0  0  0  0  0  0  0  0  0  0
   -2.8639    1.3023    2.6643 H   0  0  0  0  0  0  0  0  0  0  0  0
   -4.0093   -0.0378    2.3217 H   0  0  0  0  0  0  0  0  0  0  0  0
   -5.7658    1.7527    1.7929 H   0  0  0  0  0  0  0  0  0  0  0  0
   -5.2644    1.6349    3.5093 H   0  0  0  0  0  0  0  0  0  0  0  0
   -6.3880    4.0380    1.9909 H   0  0  0  0  0  0  0  0  0  0  0  0
   -5.2409    5.1656    2.7461 H   0  0  0  0  0  0  0  0  0  0  0  0
   -6.0317    3.9268    3.7473 H   0  0  0  0  0  0  0  0  0  0  0  0
    1.8139    3.9888   -2.2508 H   0  0  0  0  0  0  0  0  0  0  0  0
    2.1274   -0.9632   -1.2767 H   0  0  0  0  0  0  0  0  0  0  0  0
    3.9414   -2.3823   -1.3930 H   0  0  0  0  0  0  0  0  0  0  0  0
    6.3842   -2.6446   -1.5130 H   0  0  0  0  0  0  0  0  0  0  0  0
    7.8712   -0.7018   -1.1294 H   0  0  0  0  0  0  0  0  0  0  0  0
    4.4406    1.7952   -0.4580 H   0  0  0  0  0  0  0  0  0  0  0  0
    8.4430    3.5724   -0.1552 H   0  0  0  0  0  0  0  0  0  0  0  0
  1  2  1  0
  2  3  1  0
  3  4  1  0
  4  5  1  0
  5  6  1  0
  6  7  2  0
  7  8  1  0
  8  9  2  0
  9 10  1  0
 10 11  2  0
 11 12  1  0
 12 13  1  0
 13 14  1  0
 14 15  1  0
 15 16  1  0
  9 17  1  0
 17 18  2  0
 18 19  1  0
 19 20  2  0
 20 21  1  0
 21 22  1  0
 22 23  2  0
 23 24  1  0
 24 25  2  0
 25 26  1  0
 26 27  2  0
 26 28  1  0
 28 29  3  0
 11  6  1  0
 20  8  1  0
 27 22  1  0
  1 30  1  0
  1 31  1  0
  1 32  1  0
  3 33  1  0
  3 34  1  0
  4 35  1  0
  4 36  1  0
  7 37  1  0
 10 38  1  0
 13 39  1  0
 13 40  1  0
 14 41  1  0
 14 42  1  0
 16 43  1  0
 16 44  1  0
 16 45  1  0
 18 46  1  0
 21 47  1  0
 23 48  1  0
 24 49  1  0
 25 50  1  0
 27 51  1  0
 29 52  1  0
M  END
>  <energy_abs>  (192) 
58.940025775307646

>  <SMILES>  (192) 
COCCOc1cc2c(cc1OCCOC)ncnc2Nc3cccc(c3)C#C

>  <cluster_no>  (192) 
192

>  <fda_drugs_id>  (192) 
AAKJLRGGTJKAMG-UHFFFAOYSA-N

>  <initial_conformation_id>  (192) 
106

>  <minimize_method>  (192) 
MMFF

$$$$

     RDKit          3D

 52 54  0  0  0  0  0  0  0  0999 V2000
   -1.7706   -6.0323    1.8663 C   0  0  0  0  0  0  0  0  0  0  0  0
   -1.0488   -4.8767    1.4595 O   0  0  0  0  0  0  0  0  0  0  0  0
   -1.8959   -3.7300    1.3885 C   0  0  0  0  0  0  0  0  0  0  0  0
   -1.0755   -2.5251    0.9393 C   0  0  0  0  0  0  0  0  0  0  0  0
   -1.9316   -1.3865    0.8908 O   0  0  0  0  0  0  0  0  0  0  0  0
   -1.3877   -0.1859    0.5132 C   0  0  0  0  0  0  0  0  0  0  0  0
   -0.0493    0.0065    0.1666 C   0  0  0  0  0  0  0  0  0  0  0  0
    0.4333    1.2871   -0.2085 C   0  0  0  0  0  0  0  0  0  0  0  0
   -0.4536    2.3690   -0.2472 C   0  0  0  0  0  0  0  0  0  0  0  0
   -1.7830    2.1645    0.1011 C   0  0  0  0  0  0  0  0  0  0  0  0
   -2.2674    0.9073    0.4769 C   0  0  0  0  0  0  0  0  0  0  0  0
   -3.5636    0.6439    0.8406 O   0  0  0  0  0  0  0  0  0  0  0  0
   -4.5643    1.6373    0.6263 C   0  0  0  0  0  0  0  0  0  0  0  0
   -4.7421    2.5144    1.8658 C   0  0  0  0  0  0  0  0  0  0  0  0
   -5.6832    3.5666    1.6512 O   0  0  0  0  0  0  0  0  0  0  0  0
   -7.0339    3.1387    1.7647 C   0  0  0  0  0  0  0  0  0  0  0  0
   -0.0766    3.5986   -0.6058 N   0  0  0  0  0  0  0  0  0  0  0  0
    1.2060    3.7608   -0.9447 C   0  0  0  0  0  0  0  0  0  0  0  0
    2.1459    2.8135   -0.9453 N   0  0  0  0  0  0  0  0  0  0  0  0
    1.7663    1.5799   -0.5674 C   0  0  0  0  0  0  0  0  0  0  0  0
    2.7354    0.5409   -0.5046 N   0  0  0  0  0  0  0  0  0  0  0  0
    4.0374    0.5177   -1.0557 C   0  0  0  0  0  0  0  0  0  0  0  0
    4.3806    1.2193   -2.2178 C   0  0  0  0  0  0  0  0  0  0  0  0
    5.6593    1.1163   -2.7738 C   0  0  0  0  0  0  0  0  0  0  0  0
    6.6107    0.2850   -2.1874 C   0  0  0  0  0  0  0  0  0  0  0  0
    6.2779   -0.4521   -1.0523 C   0  0  0  0  0  0  0  0  0  0  0  0
    4.9964   -0.3448   -0.4997 C   0  0  0  0  0  0  0  0  0  0  0  0
    7.2433   -1.3239   -0.4558 C   0  0  0  0  0  0  0  0  0  0  0  0
    8.0534   -2.0555    0.0447 C   0  0  0  0  0  0  0  0  0  0  0  0
   -2.5616   -6.2630    1.1463 H   0  0  0  0  0  0  0  0  0  0  0  0
   -1.0763   -6.8759    1.9047 H   0  0  0  0  0  0  0  0  0  0  0  0
   -2.1981   -5.8856    2.8629 H   0  0  0  0  0  0  0  0  0  0  0  0
   -2.3422   -3.5318    2.3705 H   0  0  0  0  0  0  0  0  0  0  0  0
   -2.7133   -3.9087    0.6795 H   0  0  0  0  0  0  0  0  0  0  0  0
   -0.6488   -2.7319   -0.0500 H   0  0  0  0  0  0  0  0  0  0  0  0
   -0.2567   -2.3642    1.6514 H   0  0  0  0  0  0  0  0  0  0  0  0
    0.6425   -0.8293    0.1617 H   0  0  0  0  0  0  0  0  0  0  0  0
   -2.4317    3.0350    0.0749 H   0  0  0  0  0  0  0  0  0  0  0  0
   -5.4976    1.0942    0.4394 H   0  0  0  0  0  0  0  0  0  0  0  0
   -4.4008    2.2247   -0.2850 H   0  0  0  0  0  0  0  0  0  0  0  0
   -3.7886    2.9870    2.1235 H   0  0  0  0  0  0  0  0  0  0  0  0
   -5.0213    1.9116    2.7388 H   0  0  0  0  0  0  0  0  0  0  0  0
   -7.2193    2.7060    2.7524 H   0  0  0  0  0  0  0  0  0  0  0  0
   -7.2826    2.4167    0.9825 H   0  0  0  0  0  0  0  0  0  0  0  0
   -7.6799    4.0125    1.6428 H   0  0  0  0  0  0  0  0  0  0  0  0
    1.5129    4.7568   -1.2448 H   0  0  0  0  0  0  0  0  0  0  0  0
    2.7245    0.1432    0.4291 H   0  0  0  0  0  0  0  0  0  0  0  0
    3.6511    1.8551   -2.7126 H   0  0  0  0  0  0  0  0  0  0  0  0
    5.9057    1.6811   -3.6690 H   0  0  0  0  0  0  0  0  0  0  0  0
    7.6025    0.2083   -2.6258 H   0  0  0  0  0  0  0  0  0  0  0  0
    4.7502   -0.9399    0.3761 H   0  0  0  0  0  0  0  0  0  0  0  0
    8.7732   -2.7040    0.4872 H   0  0  0  0  0  0  0  0  0  0  0  0
  1  2  1  0
  2  3  1  0
  3  4  1  0
  4  5  1  0
  5  6  1  0
  6  7  2  0
  7  8  1  0
  8  9  2  0
  9 10  1  0
 10 11  2  0
 11 12  1  0
 12 13  1  0
 13 14  1  0
 14 15  1  0
 15 16  1  0
  9 17  1  0
 17 18  2  0
 18 19  1  0
 19 20  2  0
 20 21  1  0
 21 22  1  0
 22 23  2  0
 23 24  1  0
 24 25  2  0
 25 26  1  0
 26 27  2  0
 26 28  1  0
 28 29  3  0
 11  6  1  0
 20  8  1  0
 27 22  1  0
  1 30  1  0
  1 31  1  0
  1 32  1  0
  3 33  1  0
  3 34  1  0
  4 35  1  0
  4 36  1  0
  7 37  1  0
 10 38  1  0
 13 39  1  0
 13 40  1  0
 14 41  1  0
 14 42  1  0
 16 43  1  0
 16 44  1  0
 16 45  1  0
 18 46  1  0
 21 47  1  0
 23 48  1  0
 24 49  1  0
 25 50  1  0
 27 51  1  0
 29 52  1  0
M  END
>  <energy_abs>  (193) 
58.4695743584211

>  <SMILES>  (193) 
COCCOc1cc2c(cc1OCCOC)ncnc2Nc3cccc(c3)C#C

>  <cluster_no>  (193) 
193

>  <fda_drugs_id>  (193) 
AAKJLRGGTJKAMG-UHFFFAOYSA-N

>  <initial_conformation_id>  (193) 
105

>  <minimize_method>  (193) 
MMFF

$$$$

     RDKit          3D

 52 54  0  0  0  0  0  0  0  0999 V2000
   -2.3801   -5.3745    2.6205 C   0  0  0  0  0  0  0  0  0  0  0  0
   -3.4230   -4.4897    2.2349 O   0  0  0  0  0  0  0  0  0  0  0  0
   -3.1021   -3.7179    1.0770 C   0  0  0  0  0  0  0  0  0  0  0  0
   -2.2446   -2.4983    1.4113 C   0  0  0  0  0  0  0  0  0  0  0  0
   -2.0075   -1.7679    0.2010 O   0  0  0  0  0  0  0  0  0  0  0  0
   -1.4113   -0.5616    0.4671 C   0  0  0  0  0  0  0  0  0  0  0  0
   -0.0514   -0.4493    0.1899 C   0  0  0  0  0  0  0  0  0  0  0  0
    0.6237    0.7745    0.4034 C   0  0  0  0  0  0  0  0  0  0  0  0
   -0.1010    1.8820    0.8656 C   0  0  0  0  0  0  0  0  0  0  0  0
   -1.4666    1.7477    1.1087 C   0  0  0  0  0  0  0  0  0  0  0  0
   -2.1445    0.5431    0.9109 C   0  0  0  0  0  0  0  0  0  0  0  0
   -3.4807    0.3331    1.1039 O   0  0  0  0  0  0  0  0  0  0  0  0
   -4.3324    1.4088    1.5101 C   0  0  0  0  0  0  0  0  0  0  0  0
   -4.8958    2.1573    0.3010 C   0  0  0  0  0  0  0  0  0  0  0  0
   -3.9845    3.1782   -0.1116 O   0  0  0  0  0  0  0  0  0  0  0  0
   -4.4088    3.8088   -1.3125 C   0  0  0  0  0  0  0  0  0  0  0  0
    0.4684    3.0714    1.0784 N   0  0  0  0  0  0  0  0  0  0  0  0
    1.7746    3.1722    0.8139 C   0  0  0  0  0  0  0  0  0  0  0  0
    2.5680    2.1932    0.3735 N   0  0  0  0  0  0  0  0  0  0  0  0
    1.9976    0.9922    0.1741 C   0  0  0  0  0  0  0  0  0  0  0  0
    2.8006   -0.0969   -0.2628 N   0  0  0  0  0  0  0  0  0  0  0  0
    4.1054   -0.0671   -0.8059 C   0  0  0  0  0  0  0  0  0  0  0  0
    4.9004   -1.2219   -0.7259 C   0  0  0  0  0  0  0  0  0  0  0  0
    6.1712   -1.2671   -1.3057 C   0  0  0  0  0  0  0  0  0  0  0  0
    6.6582   -0.1621   -1.9996 C   0  0  0  0  0  0  0  0  0  0  0  0
    5.8689    0.9810   -2.1226 C   0  0  0  0  0  0  0  0  0  0  0  0
    4.5972    1.0204   -1.5394 C   0  0  0  0  0  0  0  0  0  0  0  0
    6.3558    2.1092   -2.8567 C   0  0  0  0  0  0  0  0  0  0  0  0
    6.7631    3.0557   -3.4732 C   0  0  0  0  0  0  0  0  0  0  0  0
   -1.4797   -4.8222    2.9019 H   0  0  0  0  0  0  0  0  0  0  0  0
   -2.7199   -5.9441    3.4898 H   0  0  0  0  0  0  0  0  0  0  0  0
   -2.1563   -6.0774    1.8125 H   0  0  0  0  0  0  0  0  0  0  0  0
   -2.6264   -4.3415    0.3101 H   0  0  0  0  0  0  0  0  0  0  0  0
   -4.0485   -3.3750    0.6426 H   0  0  0  0  0  0  0  0  0  0  0  0
   -1.2850   -2.8140    1.8364 H   0  0  0  0  0  0  0  0  0  0  0  0
   -2.7607   -1.8957    2.1688 H   0  0  0  0  0  0  0  0  0  0  0  0
    0.4728   -1.3132   -0.2093 H   0  0  0  0  0  0  0  0  0  0  0  0
   -1.9892    2.6393    1.4415 H   0  0  0  0  0  0  0  0  0  0  0  0
   -3.8561    2.0672    2.2433 H   0  0  0  0  0  0  0  0  0  0  0  0
   -5.1706    0.9266    2.0259 H   0  0  0  0  0  0  0  0  0  0  0  0
   -5.8385    2.6401    0.5806 H   0  0  0  0  0  0  0  0  0  0  0  0
   -5.0719    1.4631   -0.5282 H   0  0  0  0  0  0  0  0  0  0  0  0
   -4.4258    3.0882   -2.1357 H   0  0  0  0  0  0  0  0  0  0  0  0
   -5.3982    4.2568   -1.1825 H   0  0  0  0  0  0  0  0  0  0  0  0
   -3.6950    4.5998   -1.5570 H   0  0  0  0  0  0  0  0  0  0  0  0
    2.2347    4.1412    0.9748 H   0  0  0  0  0  0  0  0  0  0  0  0
    2.6842   -0.8688    0.3846 H   0  0  0  0  0  0  0  0  0  0  0  0
    4.5375   -2.1039   -0.2043 H   0  0  0  0  0  0  0  0  0  0  0  0
    6.7764   -2.1658   -1.2217 H   0  0  0  0  0  0  0  0  0  0  0  0
    7.6459   -0.2008   -2.4519 H   0  0  0  0  0  0  0  0  0  0  0  0
    3.9861    1.9098   -1.6705 H   0  0  0  0  0  0  0  0  0  0  0  0
    7.1215    3.8962   -4.0207 H   0  0  0  0  0  0  0  0  0  0  0  0
  1  2  1  0
  2  3  1  0
  3  4  1  0
  4  5  1  0
  5  6  1  0
  6  7  2  0
  7  8  1  0
  8  9  2  0
  9 10  1  0
 10 11  2  0
 11 12  1  0
 12 13  1  0
 13 14  1  0
 14 15  1  0
 15 16  1  0
  9 17  1  0
 17 18  2  0
 18 19  1  0
 19 20  2  0
 20 21  1  0
 21 22  1  0
 22 23  2  0
 23 24  1  0
 24 25  2  0
 25 26  1  0
 26 27  2  0
 26 28  1  0
 28 29  3  0
 11  6  1  0
 20  8  1  0
 27 22  1  0
  1 30  1  0
  1 31  1  0
  1 32  1  0
  3 33  1  0
  3 34  1  0
  4 35  1  0
  4 36  1  0
  7 37  1  0
 10 38  1  0
 13 39  1  0
 13 40  1  0
 14 41  1  0
 14 42  1  0
 16 43  1  0
 16 44  1  0
 16 45  1  0
 18 46  1  0
 21 47  1  0
 23 48  1  0
 24 49  1  0
 25 50  1  0
 27 51  1  0
 29 52  1  0
M  END
>  <energy_abs>  (194) 
60.52409842054241

>  <SMILES>  (194) 
COCCOc1cc2c(cc1OCCOC)ncnc2Nc3cccc(c3)C#C

>  <cluster_no>  (194) 
194

>  <fda_drugs_id>  (194) 
AAKJLRGGTJKAMG-UHFFFAOYSA-N

>  <initial_conformation_id>  (194) 
104

>  <minimize_method>  (194) 
MMFF

$$$$

     RDKit          3D

 52 54  0  0  0  0  0  0  0  0999 V2000
   -3.3893   -4.4124    0.5632 C   0  0  0  0  0  0  0  0  0  0  0  0
   -2.3502   -4.4804    1.5323 O   0  0  0  0  0  0  0  0  0  0  0  0
   -1.5342   -3.3090    1.5721 C   0  0  0  0  0  0  0  0  0  0  0  0
   -2.2393   -2.1096    2.2126 C   0  0  0  0  0  0  0  0  0  0  0  0
   -1.3239   -1.0289    2.4430 O   0  0  0  0  0  0  0  0  0  0  0  0
   -1.1178   -0.2516    1.3326 C   0  0  0  0  0  0  0  0  0  0  0  0
    0.1676   -0.2783    0.7933 C   0  0  0  0  0  0  0  0  0  0  0  0
    0.4928    0.5097   -0.3339 C   0  0  0  0  0  0  0  0  0  0  0  0
   -0.4855    1.3469   -0.8848 C   0  0  0  0  0  0  0  0  0  0  0  0
   -1.7528    1.3820   -0.3078 C   0  0  0  0  0  0  0  0  0  0  0  0
   -2.0882    0.6065    0.8067 C   0  0  0  0  0  0  0  0  0  0  0  0
   -3.2927    0.6319    1.4544 O   0  0  0  0  0  0  0  0  0  0  0  0
   -4.3109    1.5299    1.0152 C   0  0  0  0  0  0  0  0  0  0  0  0
   -4.1274    2.9284    1.6066 C   0  0  0  0  0  0  0  0  0  0  0  0
   -5.1503    3.8211    1.1620 O   0  0  0  0  0  0  0  0  0  0  0  0
   -6.3156    3.7765    1.9777 C   0  0  0  0  0  0  0  0  0  0  0  0
   -0.2498    2.1287   -1.9406 N   0  0  0  0  0  0  0  0  0  0  0  0
    0.9844    2.0927   -2.4542 C   0  0  0  0  0  0  0  0  0  0  0  0
    1.9968    1.3403   -2.0185 N   0  0  0  0  0  0  0  0  0  0  0  0
    1.7536    0.5436   -0.9634 C   0  0  0  0  0  0  0  0  0  0  0  0
    2.7861   -0.3027   -0.4769 N   0  0  0  0  0  0  0  0  0  0  0  0
    4.1720   -0.2390   -0.7484 C   0  0  0  0  0  0  0  0  0  0  0  0
    4.9463   -1.4029   -0.6167 C   0  0  0  0  0  0  0  0  0  0  0  0
    6.3301   -1.3761   -0.8108 C   0  0  0  0  0  0  0  0  0  0  0  0
    6.9666   -0.1752   -1.1146 C   0  0  0  0  0  0  0  0  0  0  0  0
    6.2200    0.9983   -1.2139 C   0  0  0  0  0  0  0  0  0  0  0  0
    4.8342    0.9649   -1.0212 C   0  0  0  0  0  0  0  0  0  0  0  0
    6.8740    2.2389   -1.4994 C   0  0  0  0  0  0  0  0  0  0  0  0
    7.4224    3.2805   -1.7370 C   0  0  0  0  0  0  0  0  0  0  0  0
   -3.8951   -5.3817    0.5356 H   0  0  0  0  0  0  0  0  0  0  0  0
   -4.1287   -3.6523    0.8357 H   0  0  0  0  0  0  0  0  0  0  0  0
   -2.9806   -4.2057   -0.4316 H   0  0  0  0  0  0  0  0  0  0  0  0
   -0.6443   -3.5557    2.1620 H   0  0  0  0  0  0  0  0  0  0  0  0
   -1.1718   -3.0702    0.5649 H   0  0  0  0  0  0  0  0  0  0  0  0
   -3.1095   -1.8047    1.6229 H   0  0  0  0  0  0  0  0  0  0  0  0
   -2.6346   -2.4104    3.1905 H   0  0  0  0  0  0  0  0  0  0  0  0
    0.9182   -0.9055    1.2675 H   0  0  0  0  0  0  0  0  0  0  0  0
   -2.4686    2.0626   -0.7591 H   0  0  0  0  0  0  0  0  0  0  0  0
   -4.4201    1.5455   -0.0751 H   0  0  0  0  0  0  0  0  0  0  0  0
   -5.2584    1.1153    1.3763 H   0  0  0  0  0  0  0  0  0  0  0  0
   -3.1720    3.3487    1.2767 H   0  0  0  0  0  0  0  0  0  0  0  0
   -4.0776    2.8927    2.7024 H   0  0  0  0  0  0  0  0  0  0  0  0
   -6.7576    2.7776    1.9760 H   0  0  0  0  0  0  0  0  0  0  0  0
   -7.0473    4.4795    1.5693 H   0  0  0  0  0  0  0  0  0  0  0  0
   -6.0756    4.0821    3.0010 H   0  0  0  0  0  0  0  0  0  0  0  0
    1.1807    2.7317   -3.3075 H   0  0  0  0  0  0  0  0  0  0  0  0
    2.4514   -1.2600   -0.4676 H   0  0  0  0  0  0  0  0  0  0  0  0
    4.4769   -2.3500   -0.3641 H   0  0  0  0  0  0  0  0  0  0  0  0
    6.9105   -2.2900   -0.7175 H   0  0  0  0  0  0  0  0  0  0  0  0
    8.0439   -0.1572   -1.2613 H   0  0  0  0  0  0  0  0  0  0  0  0
    4.2730    1.8940   -1.0766 H   0  0  0  0  0  0  0  0  0  0  0  0
    7.9065    4.2058   -1.9467 H   0  0  0  0  0  0  0  0  0  0  0  0
  1  2  1  0
  2  3  1  0
  3  4  1  0
  4  5  1  0
  5  6  1  0
  6  7  2  0
  7  8  1  0
  8  9  2  0
  9 10  1  0
 10 11  2  0
 11 12  1  0
 12 13  1  0
 13 14  1  0
 14 15  1  0
 15 16  1  0
  9 17  1  0
 17 18  2  0
 18 19  1  0
 19 20  2  0
 20 21  1  0
 21 22  1  0
 22 23  2  0
 23 24  1  0
 24 25  2  0
 25 26  1  0
 26 27  2  0
 26 28  1  0
 28 29  3  0
 11  6  1  0
 20  8  1  0
 27 22  1  0
  1 30  1  0
  1 31  1  0
  1 32  1  0
  3 33  1  0
  3 34  1  0
  4 35  1  0
  4 36  1  0
  7 37  1  0
 10 38  1  0
 13 39  1  0
 13 40  1  0
 14 41  1  0
 14 42  1  0
 16 43  1  0
 16 44  1  0
 16 45  1  0
 18 46  1  0
 21 47  1  0
 23 48  1  0
 24 49  1  0
 25 50  1  0
 27 51  1  0
 29 52  1  0
M  END
>  <energy_abs>  (195) 
62.01354437843633

>  <SMILES>  (195) 
COCCOc1cc2c(cc1OCCOC)ncnc2Nc3cccc(c3)C#C

>  <cluster_no>  (195) 
195

>  <fda_drugs_id>  (195) 
AAKJLRGGTJKAMG-UHFFFAOYSA-N

>  <initial_conformation_id>  (195) 
103

>  <minimize_method>  (195) 
MMFF

$$$$

     RDKit          3D

 52 54  0  0  0  0  0  0  0  0999 V2000
   -1.3856   -3.8661    3.5972 C   0  0  0  0  0  0  0  0  0  0  0  0
   -2.2948   -3.8459    2.5073 O   0  0  0  0  0  0  0  0  0  0  0  0
   -1.6709   -4.0185    1.2312 C   0  0  0  0  0  0  0  0  0  0  0  0
   -0.9189   -2.7753    0.7439 C   0  0  0  0  0  0  0  0  0  0  0  0
   -1.8617   -1.7361    0.4757 O   0  0  0  0  0  0  0  0  0  0  0  0
   -1.3810   -0.4973    0.1382 C   0  0  0  0  0  0  0  0  0  0  0  0
   -0.0431   -0.2164   -0.1425 C   0  0  0  0  0  0  0  0  0  0  0  0
    0.3737    1.0973   -0.4780 C   0  0  0  0  0  0  0  0  0  0  0  0
   -0.5708    2.1294   -0.5106 C   0  0  0  0  0  0  0  0  0  0  0  0
   -1.9019    1.8335   -0.2437 C   0  0  0  0  0  0  0  0  0  0  0  0
   -2.3265    0.5383    0.0704 C   0  0  0  0  0  0  0  0  0  0  0  0
   -3.6221    0.1808    0.3408 O   0  0  0  0  0  0  0  0  0  0  0  0
   -4.6574    1.1566    0.2553 C   0  0  0  0  0  0  0  0  0  0  0  0
   -4.8261    1.9027    1.5759 C   0  0  0  0  0  0  0  0  0  0  0  0
   -5.8619    2.8757    1.4387 O   0  0  0  0  0  0  0  0  0  0  0  0
   -6.0744    3.5848    2.6524 C   0  0  0  0  0  0  0  0  0  0  0  0
   -0.2466    3.3945   -0.7889 N   0  0  0  0  0  0  0  0  0  0  0  0
    1.0426    3.6464   -1.0362 C   0  0  0  0  0  0  0  0  0  0  0  0
    2.0322    2.7510   -1.0439 N   0  0  0  0  0  0  0  0  0  0  0  0
    1.6993    1.4758   -0.7777 C   0  0  0  0  0  0  0  0  0  0  0  0
    2.7030    0.4687   -0.8246 N   0  0  0  0  0  0  0  0  0  0  0  0
    4.1078    0.6312   -0.8261 C   0  0  0  0  0  0  0  0  0  0  0  0
    4.7451    1.7044   -0.1916 C   0  0  0  0  0  0  0  0  0  0  0  0
    6.1396    1.7949   -0.1495 C   0  0  0  0  0  0  0  0  0  0  0  0
    6.9215    0.7940   -0.7211 C   0  0  0  0  0  0  0  0  0  0  0  0
    6.3075   -0.3022   -1.3244 C   0  0  0  0  0  0  0  0  0  0  0  0
    4.9110   -0.3874   -1.3644 C   0  0  0  0  0  0  0  0  0  0  0  0
    7.1043   -1.3440   -1.8966 C   0  0  0  0  0  0  0  0  0  0  0  0
    7.7748   -2.2164   -2.3778 C   0  0  0  0  0  0  0  0  0  0  0  0
   -0.7355   -2.9877    3.5814 H   0  0  0  0  0  0  0  0  0  0  0  0
   -0.7865   -4.7816    3.5868 H   0  0  0  0  0  0  0  0  0  0  0  0
   -1.9648   -3.8426    4.5244 H   0  0  0  0  0  0  0  0  0  0  0  0
   -2.4765   -4.2490    0.5258 H   0  0  0  0  0  0  0  0  0  0  0  0
   -1.0011   -4.8851    1.2667 H   0  0  0  0  0  0  0  0  0  0  0  0
   -0.3922   -3.0312   -0.1827 H   0  0  0  0  0  0  0  0  0  0  0  0
   -0.2015   -2.4441    1.5013 H   0  0  0  0  0  0  0  0  0  0  0  0
    0.7046   -1.0006   -0.0938 H   0  0  0  0  0  0  0  0  0  0  0  0
   -2.6013    2.6627   -0.2838 H   0  0  0  0  0  0  0  0  0  0  0  0
   -5.5875    0.6132    0.0473 H   0  0  0  0  0  0  0  0  0  0  0  0
   -4.5388    1.8312   -0.6006 H   0  0  0  0  0  0  0  0  0  0  0  0
   -5.0810    1.1911    2.3705 H   0  0  0  0  0  0  0  0  0  0  0  0
   -3.8918    2.3975    1.8631 H   0  0  0  0  0  0  0  0  0  0  0  0
   -6.3780    2.8989    3.4491 H   0  0  0  0  0  0  0  0  0  0  0  0
   -5.1684    4.1247    2.9439 H   0  0  0  0  0  0  0  0  0  0  0  0
   -6.8766    4.3099    2.4914 H   0  0  0  0  0  0  0  0  0  0  0  0
    1.3093    4.6747   -1.2547 H   0  0  0  0  0  0  0  0  0  0  0  0
    2.4149   -0.2383   -1.4937 H   0  0  0  0  0  0  0  0  0  0  0  0
    4.1608    2.4869    0.2859 H   0  0  0  0  0  0  0  0  0  0  0  0
    6.6111    2.6449    0.3367 H   0  0  0  0  0  0  0  0  0  0  0  0
    8.0052    0.8697   -0.6835 H   0  0  0  0  0  0  0  0  0  0  0  0
    4.4503   -1.2569   -1.8265 H   0  0  0  0  0  0  0  0  0  0  0  0
    8.3715   -2.9893   -2.8027 H   0  0  0  0  0  0  0  0  0  0  0  0
  1  2  1  0
  2  3  1  0
  3  4  1  0
  4  5  1  0
  5  6  1  0
  6  7  2  0
  7  8  1  0
  8  9  2  0
  9 10  1  0
 10 11  2  0
 11 12  1  0
 12 13  1  0
 13 14  1  0
 14 15  1  0
 15 16  1  0
  9 17  1  0
 17 18  2  0
 18 19  1  0
 19 20  2  0
 20 21  1  0
 21 22  1  0
 22 23  2  0
 23 24  1  0
 24 25  2  0
 25 26  1  0
 26 27  2  0
 26 28  1  0
 28 29  3  0
 11  6  1  0
 20  8  1  0
 27 22  1  0
  1 30  1  0
  1 31  1  0
  1 32  1  0
  3 33  1  0
  3 34  1  0
  4 35  1  0
  4 36  1  0
  7 37  1  0
 10 38  1  0
 13 39  1  0
 13 40  1  0
 14 41  1  0
 14 42  1  0
 16 43  1  0
 16 44  1  0
 16 45  1  0
 18 46  1  0
 21 47  1  0
 23 48  1  0
 24 49  1  0
 25 50  1  0
 27 51  1  0
 29 52  1  0
M  END
>  <energy_abs>  (196) 
61.55763900656122

>  <SMILES>  (196) 
COCCOc1cc2c(cc1OCCOC)ncnc2Nc3cccc(c3)C#C

>  <cluster_no>  (196) 
196

>  <fda_drugs_id>  (196) 
AAKJLRGGTJKAMG-UHFFFAOYSA-N

>  <initial_conformation_id>  (196) 
102

>  <minimize_method>  (196) 
MMFF

$$$$

     RDKit          3D

 52 54  0  0  0  0  0  0  0  0999 V2000
   -3.9819   -3.0992    1.3467 C   0  0  0  0  0  0  0  0  0  0  0  0
   -2.9139   -3.9614    1.7195 O   0  0  0  0  0  0  0  0  0  0  0  0
   -1.9596   -3.3399    2.5882 C   0  0  0  0  0  0  0  0  0  0  0  0
   -1.0863   -2.3086    1.8686 C   0  0  0  0  0  0  0  0  0  0  0  0
   -1.7759   -1.0549    1.8433 O   0  0  0  0  0  0  0  0  0  0  0  0
   -1.1320    0.0165    1.2855 C   0  0  0  0  0  0  0  0  0  0  0  0
    0.0753   -0.0444    0.5904 C   0  0  0  0  0  0  0  0  0  0  0  0
    0.6591    1.1238    0.0286 C   0  0  0  0  0  0  0  0  0  0  0  0
    0.0280    2.3620    0.2057 C   0  0  0  0  0  0  0  0  0  0  0  0
   -1.1705    2.4099    0.9027 C   0  0  0  0  0  0  0  0  0  0  0  0
   -1.7670    1.2554    1.4143 C   0  0  0  0  0  0  0  0  0  0  0  0
   -2.9363    1.3085    2.1314 O   0  0  0  0  0  0  0  0  0  0  0  0
   -4.0350    1.9129    1.4388 C   0  0  0  0  0  0  0  0  0  0  0  0
   -4.6045    0.9941    0.3556 C   0  0  0  0  0  0  0  0  0  0  0  0
   -5.7588    1.5663   -0.2613 O   0  0  0  0  0  0  0  0  0  0  0  0
   -6.9614    1.2474    0.4248 C   0  0  0  0  0  0  0  0  0  0  0  0
    0.5320    3.5037   -0.2667 N   0  0  0  0  0  0  0  0  0  0  0  0
    1.6869    3.4211   -0.9340 C   0  0  0  0  0  0  0  0  0  0  0  0
    2.3763    2.3059   -1.1791 N   0  0  0  0  0  0  0  0  0  0  0  0
    1.8651    1.1567   -0.7037 C   0  0  0  0  0  0  0  0  0  0  0  0
    2.5450   -0.0669   -0.9522 N   0  0  0  0  0  0  0  0  0  0  0  0
    3.8647   -0.2721   -1.4193 C   0  0  0  0  0  0  0  0  0  0  0  0
    4.1951   -1.5159   -1.9794 C   0  0  0  0  0  0  0  0  0  0  0  0
    5.4994   -1.8020   -2.3921 C   0  0  0  0  0  0  0  0  0  0  0  0
    6.5052   -0.8556   -2.2204 C   0  0  0  0  0  0  0  0  0  0  0  0
    6.2073    0.3694   -1.6271 C   0  0  0  0  0  0  0  0  0  0  0  0
    4.8988    0.6499   -1.2173 C   0  0  0  0  0  0  0  0  0  0  0  0
    7.2456    1.3326   -1.4201 C   0  0  0  0  0  0  0  0  0  0  0  0
    8.1180    2.1393   -1.2420 C   0  0  0  0  0  0  0  0  0  0  0  0
   -3.6355   -2.3452    0.6360 H   0  0  0  0  0  0  0  0  0  0  0  0
   -4.7474   -3.7024    0.8504 H   0  0  0  0  0  0  0  0  0  0  0  0
   -4.4299   -2.6240    2.2241 H   0  0  0  0  0  0  0  0  0  0  0  0
   -2.4740   -2.9077    3.4533 H   0  0  0  0  0  0  0  0  0  0  0  0
   -1.3178   -4.1506    2.9478 H   0  0  0  0  0  0  0  0  0  0  0  0
   -0.8885   -2.6483    0.8453 H   0  0  0  0  0  0  0  0  0  0  0  0
   -0.1495   -2.1888    2.4256 H   0  0  0  0  0  0  0  0  0  0  0  0
    0.5980   -0.9888    0.4800 H   0  0  0  0  0  0  0  0  0  0  0  0
   -1.6305    3.3794    1.0637 H   0  0  0  0  0  0  0  0  0  0  0  0
   -3.7887    2.9009    1.0312 H   0  0  0  0  0  0  0  0  0  0  0  0
   -4.8050    2.1030    2.1948 H   0  0  0  0  0  0  0  0  0  0  0  0
   -4.8192   -0.0041    0.7530 H   0  0  0  0  0  0  0  0  0  0  0  0
   -3.8576    0.8553   -0.4348 H   0  0  0  0  0  0  0  0  0  0  0  0
   -7.1299    0.1670    0.4087 H   0  0  0  0  0  0  0  0  0  0  0  0
   -7.7914    1.7323   -0.0925 H   0  0  0  0  0  0  0  0  0  0  0  0
   -6.9356    1.6040    1.4584 H   0  0  0  0  0  0  0  0  0  0  0  0
    2.1008    4.3472   -1.3186 H   0  0  0  0  0  0  0  0  0  0  0  0
    1.8989   -0.7176   -1.3877 H   0  0  0  0  0  0  0  0  0  0  0  0
    3.4342   -2.2810   -2.1044 H   0  0  0  0  0  0  0  0  0  0  0  0
    5.7312   -2.7677   -2.8317 H   0  0  0  0  0  0  0  0  0  0  0  0
    7.5205   -1.0828   -2.5359 H   0  0  0  0  0  0  0  0  0  0  0  0
    4.6969    1.5974   -0.7246 H   0  0  0  0  0  0  0  0  0  0  0  0
    8.8852    2.8600   -1.0889 H   0  0  0  0  0  0  0  0  0  0  0  0
  1  2  1  0
  2  3  1  0
  3  4  1  0
  4  5  1  0
  5  6  1  0
  6  7  2  0
  7  8  1  0
  8  9  2  0
  9 10  1  0
 10 11  2  0
 11 12  1  0
 12 13  1  0
 13 14  1  0
 14 15  1  0
 15 16  1  0
  9 17  1  0
 17 18  2  0
 18 19  1  0
 19 20  2  0
 20 21  1  0
 21 22  1  0
 22 23  2  0
 23 24  1  0
 24 25  2  0
 25 26  1  0
 26 27  2  0
 26 28  1  0
 28 29  3  0
 11  6  1  0
 20  8  1  0
 27 22  1  0
  1 30  1  0
  1 31  1  0
  1 32  1  0
  3 33  1  0
  3 34  1  0
  4 35  1  0
  4 36  1  0
  7 37  1  0
 10 38  1  0
 13 39  1  0
 13 40  1  0
 14 41  1  0
 14 42  1  0
 16 43  1  0
 16 44  1  0
 16 45  1  0
 18 46  1  0
 21 47  1  0
 23 48  1  0
 24 49  1  0
 25 50  1  0
 27 51  1  0
 29 52  1  0
M  END
>  <energy_abs>  (197) 
60.45632082076409

>  <SMILES>  (197) 
COCCOc1cc2c(cc1OCCOC)ncnc2Nc3cccc(c3)C#C

>  <cluster_no>  (197) 
197

>  <fda_drugs_id>  (197) 
AAKJLRGGTJKAMG-UHFFFAOYSA-N

>  <initial_conformation_id>  (197) 
101

>  <minimize_method>  (197) 
MMFF

$$$$

     RDKit          3D

 52 54  0  0  0  0  0  0  0  0999 V2000
   -2.6335   -5.9073    1.7078 C   0  0  0  0  0  0  0  0  0  0  0  0
   -1.7292   -4.8472    1.4245 O   0  0  0  0  0  0  0  0  0  0  0  0
   -2.4069   -3.5943    1.3299 C   0  0  0  0  0  0  0  0  0  0  0  0
   -1.3957   -2.4981    1.0099 C   0  0  0  0  0  0  0  0  0  0  0  0
   -2.0840   -1.2518    0.9430 O   0  0  0  0  0  0  0  0  0  0  0  0
   -1.3576   -0.1296    0.6396 C   0  0  0  0  0  0  0  0  0  0  0  0
    0.0222   -0.1073    0.4297 C   0  0  0  0  0  0  0  0  0  0  0  0
    0.6974    1.1031    0.1244 C   0  0  0  0  0  0  0  0  0  0  0  0
   -0.0378    2.2891    0.0126 C   0  0  0  0  0  0  0  0  0  0  0  0
   -1.4100    2.2539    0.2251 C   0  0  0  0  0  0  0  0  0  0  0  0
   -2.0820    1.0680    0.5405 C   0  0  0  0  0  0  0  0  0  0  0  0
   -3.4329    0.9738    0.7641 O   0  0  0  0  0  0  0  0  0  0  0  0
   -4.2119    2.1646    0.6665 C   0  0  0  0  0  0  0  0  0  0  0  0
   -5.6732    1.8075    0.9373 C   0  0  0  0  0  0  0  0  0  0  0  0
   -6.5361    2.9387    0.8172 O   0  0  0  0  0  0  0  0  0  0  0  0
   -6.5659    3.7418    1.9896 C   0  0  0  0  0  0  0  0  0  0  0  0
    0.5241    3.4617   -0.2911 N   0  0  0  0  0  0  0  0  0  0  0  0
    1.8445    3.4601   -0.4993 C   0  0  0  0  0  0  0  0  0  0  0  0
    2.6530    2.4019   -0.4162 N   0  0  0  0  0  0  0  0  0  0  0  0
    2.0854    1.2256   -0.0961 C   0  0  0  0  0  0  0  0  0  0  0  0
    2.9058    0.0729    0.0472 N   0  0  0  0  0  0  0  0  0  0  0  0
    4.2431   -0.1109   -0.3748 C   0  0  0  0  0  0  0  0  0  0  0  0
    5.0294   -1.0825    0.2655 C   0  0  0  0  0  0  0  0  0  0  0  0
    6.3351   -1.3488   -0.1559 C   0  0  0  0  0  0  0  0  0  0  0  0
    6.8674   -0.6631   -1.2450 C   0  0  0  0  0  0  0  0  0  0  0  0
    6.0892    0.2782   -1.9182 C   0  0  0  0  0  0  0  0  0  0  0  0
    4.7823    0.5406   -1.4916 C   0  0  0  0  0  0  0  0  0  0  0  0
    6.6243    0.9676   -3.0525 C   0  0  0  0  0  0  0  0  0  0  0  0
    7.0724    1.5465   -4.0044 C   0  0  0  0  0  0  0  0  0  0  0  0
   -3.1340   -5.7380    2.6660 H   0  0  0  0  0  0  0  0  0  0  0  0
   -3.3732   -6.0039    0.9072 H   0  0  0  0  0  0  0  0  0  0  0  0
   -2.0635   -6.8381    1.7709 H   0  0  0  0  0  0  0  0  0  0  0  0
   -3.1703   -3.6370    0.5437 H   0  0  0  0  0  0  0  0  0  0  0  0
   -2.9134   -3.3697    2.2763 H   0  0  0  0  0  0  0  0  0  0  0  0
   -0.6312   -2.4754    1.7964 H   0  0  0  0  0  0  0  0  0  0  0  0
   -0.9116   -2.7270    0.0523 H   0  0  0  0  0  0  0  0  0  0  0  0
    0.6004   -1.0240    0.4804 H   0  0  0  0  0  0  0  0  0  0  0  0
   -1.9434    3.1949    0.1316 H   0  0  0  0  0  0  0  0  0  0  0  0
   -4.1324    2.6008   -0.3368 H   0  0  0  0  0  0  0  0  0  0  0  0
   -3.8683    2.9009    1.4015 H   0  0  0  0  0  0  0  0  0  0  0  0
   -5.9997    1.0689    0.1961 H   0  0  0  0  0  0  0  0  0  0  0  0
   -5.7911    1.3254    1.9157 H   0  0  0  0  0  0  0  0  0  0  0  0
   -6.9054    3.1552    2.8486 H   0  0  0  0  0  0  0  0  0  0  0  0
   -7.2747    4.5582    1.8263 H   0  0  0  0  0  0  0  0  0  0  0  0
   -5.5833    4.1754    2.1931 H   0  0  0  0  0  0  0  0  0  0  0  0
    2.3031    4.4086   -0.7568 H   0  0  0  0  0  0  0  0  0  0  0  0
    2.7535   -0.3215    0.9696 H   0  0  0  0  0  0  0  0  0  0  0  0
    4.6328   -1.6436    1.1079 H   0  0  0  0  0  0  0  0  0  0  0  0
    6.9325   -2.0949    0.3612 H   0  0  0  0  0  0  0  0  0  0  0  0
    7.8826   -0.8738   -1.5717 H   0  0  0  0  0  0  0  0  0  0  0  0
    4.1825    1.2576   -2.0459 H   0  0  0  0  0  0  0  0  0  0  0  0
    7.4672    2.0615   -4.8488 H   0  0  0  0  0  0  0  0  0  0  0  0
  1  2  1  0
  2  3  1  0
  3  4  1  0
  4  5  1  0
  5  6  1  0
  6  7  2  0
  7  8  1  0
  8  9  2  0
  9 10  1  0
 10 11  2  0
 11 12  1  0
 12 13  1  0
 13 14  1  0
 14 15  1  0
 15 16  1  0
  9 17  1  0
 17 18  2  0
 18 19  1  0
 19 20  2  0
 20 21  1  0
 21 22  1  0
 22 23  2  0
 23 24  1  0
 24 25  2  0
 25 26  1  0
 26 27  2  0
 26 28  1  0
 28 29  3  0
 11  6  1  0
 20  8  1  0
 27 22  1  0
  1 30  1  0
  1 31  1  0
  1 32  1  0
  3 33  1  0
  3 34  1  0
  4 35  1  0
  4 36  1  0
  7 37  1  0
 10 38  1  0
 13 39  1  0
 13 40  1  0
 14 41  1  0
 14 42  1  0
 16 43  1  0
 16 44  1  0
 16 45  1  0
 18 46  1  0
 21 47  1  0
 23 48  1  0
 24 49  1  0
 25 50  1  0
 27 51  1  0
 29 52  1  0
M  END
>  <energy_abs>  (198) 
56.65813659914612

>  <SMILES>  (198) 
COCCOc1cc2c(cc1OCCOC)ncnc2Nc3cccc(c3)C#C

>  <cluster_no>  (198) 
198

>  <fda_drugs_id>  (198) 
AAKJLRGGTJKAMG-UHFFFAOYSA-N

>  <initial_conformation_id>  (198) 
100

>  <minimize_method>  (198) 
MMFF

$$$$

     RDKit          3D

 52 54  0  0  0  0  0  0  0  0999 V2000
   -2.0704   -4.6765    0.0836 C   0  0  0  0  0  0  0  0  0  0  0  0
   -1.8858   -4.1378    1.3858 O   0  0  0  0  0  0  0  0  0  0  0  0
   -2.3965   -2.8121    1.5160 C   0  0  0  0  0  0  0  0  0  0  0  0
   -1.3902   -1.7641    1.0413 C   0  0  0  0  0  0  0  0  0  0  0  0
   -1.9553   -0.4697    1.2528 O   0  0  0  0  0  0  0  0  0  0  0  0
   -1.3286    0.6071    0.6915 C   0  0  0  0  0  0  0  0  0  0  0  0
    0.0160    0.5806    0.2995 C   0  0  0  0  0  0  0  0  0  0  0  0
    0.6582    1.7220   -0.2521 C   0  0  0  0  0  0  0  0  0  0  0  0
   -0.0718    2.9012   -0.4185 C   0  0  0  0  0  0  0  0  0  0  0  0
   -1.3977    2.9196   -0.0131 C   0  0  0  0  0  0  0  0  0  0  0  0
   -2.0425    1.8014    0.5402 C   0  0  0  0  0  0  0  0  0  0  0  0
   -3.3468    2.0687    0.8637 O   0  0  0  0  0  0  0  0  0  0  0  0
   -4.1942    1.0053    1.2889 C   0  0  0  0  0  0  0  0  0  0  0  0
   -5.6153    1.5514    1.4349 C   0  0  0  0  0  0  0  0  0  0  0  0
   -6.5540    0.5366    1.7936 O   0  0  0  0  0  0  0  0  0  0  0  0
   -6.5379    0.2292    3.1811 C   0  0  0  0  0  0  0  0  0  0  0  0
    0.4529    4.0096   -0.9481 N   0  0  0  0  0  0  0  0  0  0  0  0
    1.7319    3.9463   -1.3296 C   0  0  0  0  0  0  0  0  0  0  0  0
    2.5346    2.8859   -1.2179 N   0  0  0  0  0  0  0  0  0  0  0  0
    2.0052    1.7779   -0.6699 C   0  0  0  0  0  0  0  0  0  0  0  0
    2.8257    0.6307   -0.4837 N   0  0  0  0  0  0  0  0  0  0  0  0
    4.0925    0.3554   -1.0496 C   0  0  0  0  0  0  0  0  0  0  0  0
    4.4841    0.8427   -2.3027 C   0  0  0  0  0  0  0  0  0  0  0  0
    5.7156    0.4902   -2.8632 C   0  0  0  0  0  0  0  0  0  0  0  0
    6.5665   -0.3810   -2.1872 C   0  0  0  0  0  0  0  0  0  0  0  0
    6.1793   -0.9079   -0.9563 C   0  0  0  0  0  0  0  0  0  0  0  0
    4.9459   -0.5511   -0.3996 C   0  0  0  0  0  0  0  0  0  0  0  0
    7.0385   -1.8203   -0.2655 C   0  0  0  0  0  0  0  0  0  0  0  0
    7.7592   -2.5869    0.3133 C   0  0  0  0  0  0  0  0  0  0  0  0
   -1.6768   -5.6968    0.0772 H   0  0  0  0  0  0  0  0  0  0  0  0
   -1.5277   -4.0913   -0.6634 H   0  0  0  0  0  0  0  0  0  0  0  0
   -3.1345   -4.7150   -0.1676 H   0  0  0  0  0  0  0  0  0  0  0  0
   -2.6051   -2.6453    2.5790 H   0  0  0  0  0  0  0  0  0  0  0  0
   -3.3585   -2.7047    0.9996 H   0  0  0  0  0  0  0  0  0  0  0  0
   -0.4652   -1.8753    1.6189 H   0  0  0  0  0  0  0  0  0  0  0  0
   -1.1659   -1.9188   -0.0203 H   0  0  0  0  0  0  0  0  0  0  0  0
    0.5991   -0.3282    0.4110 H   0  0  0  0  0  0  0  0  0  0  0  0
   -1.9617    3.8432   -0.1357 H   0  0  0  0  0  0  0  0  0  0  0  0
   -3.8557    0.6218    2.2565 H   0  0  0  0  0  0  0  0  0  0  0  0
   -4.2090    0.1936    0.5521 H   0  0  0  0  0  0  0  0  0  0  0  0
   -5.9363    1.9644    0.4714 H   0  0  0  0  0  0  0  0  0  0  0  0
   -5.6499    2.3855    2.1466 H   0  0  0  0  0  0  0  0  0  0  0  0
   -7.3247   -0.5045    3.3772 H   0  0  0  0  0  0  0  0  0  0  0  0
   -5.5804   -0.2095    3.4739 H   0  0  0  0  0  0  0  0  0  0  0  0
   -6.7424    1.1239    3.7768 H   0  0  0  0  0  0  0  0  0  0  0  0
    2.1589    4.8413   -1.7686 H   0  0  0  0  0  0  0  0  0  0  0  0
    2.7993    0.3711    0.4974 H   0  0  0  0  0  0  0  0  0  0  0  0
    3.8299    1.5034   -2.8656 H   0  0  0  0  0  0  0  0  0  0  0  0
    6.0036    0.8931   -3.8308 H   0  0  0  0  0  0  0  0  0  0  0  0
    7.5221   -0.6517   -2.6291 H   0  0  0  0  0  0  0  0  0  0  0  0
    4.6544   -0.9849    0.5538 H   0  0  0  0  0  0  0  0  0  0  0  0
    8.4006   -3.2658    0.8254 H   0  0  0  0  0  0  0  0  0  0  0  0
  1  2  1  0
  2  3  1  0
  3  4  1  0
  4  5  1  0
  5  6  1  0
  6  7  2  0
  7  8  1  0
  8  9  2  0
  9 10  1  0
 10 11  2  0
 11 12  1  0
 12 13  1  0
 13 14  1  0
 14 15  1  0
 15 16  1  0
  9 17  1  0
 17 18  2  0
 18 19  1  0
 19 20  2  0
 20 21  1  0
 21 22  1  0
 22 23  2  0
 23 24  1  0
 24 25  2  0
 25 26  1  0
 26 27  2  0
 26 28  1  0
 28 29  3  0
 11  6  1  0
 20  8  1  0
 27 22  1  0
  1 30  1  0
  1 31  1  0
  1 32  1  0
  3 33  1  0
  3 34  1  0
  4 35  1  0
  4 36  1  0
  7 37  1  0
 10 38  1  0
 13 39  1  0
 13 40  1  0
 14 41  1  0
 14 42  1  0
 16 43  1  0
 16 44  1  0
 16 45  1  0
 18 46  1  0
 21 47  1  0
 23 48  1  0
 24 49  1  0
 25 50  1  0
 27 51  1  0
 29 52  1  0
M  END
>  <energy_abs>  (199) 
58.624203171843966

>  <SMILES>  (199) 
COCCOc1cc2c(cc1OCCOC)ncnc2Nc3cccc(c3)C#C

>  <cluster_no>  (199) 
199

>  <fda_drugs_id>  (199) 
AAKJLRGGTJKAMG-UHFFFAOYSA-N

>  <initial_conformation_id>  (199) 
99

>  <minimize_method>  (199) 
MMFF

$$$$

     RDKit          3D

 52 54  0  0  0  0  0  0  0  0999 V2000
   -1.7772   -5.9695    2.0549 C   0  0  0  0  0  0  0  0  0  0  0  0
   -1.0605   -4.8336    1.5880 O   0  0  0  0  0  0  0  0  0  0  0  0
   -1.9025   -3.6842    1.5012 C   0  0  0  0  0  0  0  0  0  0  0  0
   -1.0836   -2.4963    1.0063 C   0  0  0  0  0  0  0  0  0  0  0  0
   -1.9423   -1.3629    0.9089 O   0  0  0  0  0  0  0  0  0  0  0  0
   -1.4013   -0.1783    0.4802 C   0  0  0  0  0  0  0  0  0  0  0  0
   -0.0647    0.0005    0.1196 C   0  0  0  0  0  0  0  0  0  0  0  0
    0.4138    1.2636   -0.3153 C   0  0  0  0  0  0  0  0  0  0  0  0
   -0.4664    2.3508   -0.3606 C   0  0  0  0  0  0  0  0  0  0  0  0
   -1.7947    2.1591   -0.0008 C   0  0  0  0  0  0  0  0  0  0  0  0
   -2.2808    0.9136    0.4097 C   0  0  0  0  0  0  0  0  0  0  0  0
   -3.5767    0.6614    0.7821 O   0  0  0  0  0  0  0  0  0  0  0  0
   -4.5708    1.6638    0.5804 C   0  0  0  0  0  0  0  0  0  0  0  0
   -4.7118    2.5566    1.8136 C   0  0  0  0  0  0  0  0  0  0  0  0
   -5.6529    3.6109    1.6091 O   0  0  0  0  0  0  0  0  0  0  0  0
   -7.0016    3.1939    1.7751 C   0  0  0  0  0  0  0  0  0  0  0  0
   -0.0834    3.5738   -0.7349 N   0  0  0  0  0  0  0  0  0  0  0  0
    1.2023    3.7279   -1.0657 C   0  0  0  0  0  0  0  0  0  0  0  0
    2.1341    2.7726   -1.0696 N   0  0  0  0  0  0  0  0  0  0  0  0
    1.7415    1.5388   -0.7057 C   0  0  0  0  0  0  0  0  0  0  0  0
    2.6814    0.4718   -0.7325 N   0  0  0  0  0  0  0  0  0  0  0  0
    4.0907    0.5425   -0.8245 C   0  0  0  0  0  0  0  0  0  0  0  0
    4.8294    1.6200   -0.3208 C   0  0  0  0  0  0  0  0  0  0  0  0
    6.2269    1.6230   -0.3660 C   0  0  0  0  0  0  0  0  0  0  0  0
    6.9106    0.5305   -0.8944 C   0  0  0  0  0  0  0  0  0  0  0  0
    6.1957   -0.5692   -1.3659 C   0  0  0  0  0  0  0  0  0  0  0  0
    4.7969   -0.5665   -1.3186 C   0  0  0  0  0  0  0  0  0  0  0  0
    6.8914   -1.7039   -1.8917 C   0  0  0  0  0  0  0  0  0  0  0  0
    7.4752   -2.6561   -2.3327 C   0  0  0  0  0  0  0  0  0  0  0  0
   -1.0876   -6.8166    2.1006 H   0  0  0  0  0  0  0  0  0  0  0  0
   -2.5913   -6.2179    1.3672 H   0  0  0  0  0  0  0  0  0  0  0  0
   -2.1732   -5.7865    3.0584 H   0  0  0  0  0  0  0  0  0  0  0  0
   -2.3316   -3.4564    2.4845 H   0  0  0  0  0  0  0  0  0  0  0  0
   -2.7324   -3.8782    0.8109 H   0  0  0  0  0  0  0  0  0  0  0  0
   -0.2673   -2.3051    1.7139 H   0  0  0  0  0  0  0  0  0  0  0  0
   -0.6533   -2.7415    0.0274 H   0  0  0  0  0  0  0  0  0  0  0  0
    0.6372   -0.8243    0.1848 H   0  0  0  0  0  0  0  0  0  0  0  0
   -2.4398    3.0316   -0.0426 H   0  0  0  0  0  0  0  0  0  0  0  0
   -4.4214    2.2391   -0.3409 H   0  0  0  0  0  0  0  0  0  0  0  0
   -5.5140    1.1294    0.4203 H   0  0  0  0  0  0  0  0  0  0  0  0
   -4.9713    1.9660    2.7009 H   0  0  0  0  0  0  0  0  0  0  0  0
   -3.7497    3.0275    2.0407 H   0  0  0  0  0  0  0  0  0  0  0  0
   -7.6466    4.0684    1.6528 H   0  0  0  0  0  0  0  0  0  0  0  0
   -7.1578    2.7860    2.7784 H   0  0  0  0  0  0  0  0  0  0  0  0
   -7.2787    2.4548    1.0189 H   0  0  0  0  0  0  0  0  0  0  0  0
    1.5178    4.7223   -1.3620 H   0  0  0  0  0  0  0  0  0  0  0  0
    2.3118   -0.2715   -1.3166 H   0  0  0  0  0  0  0  0  0  0  0  0
    4.3244    2.4747    0.1216 H   0  0  0  0  0  0  0  0  0  0  0  0
    6.7776    2.4769    0.0195 H   0  0  0  0  0  0  0  0  0  0  0  0
    7.9971    0.5386   -0.9250 H   0  0  0  0  0  0  0  0  0  0  0  0
    4.2572   -1.4399   -1.6759 H   0  0  0  0  0  0  0  0  0  0  0  0
    7.9947   -3.4998   -2.7235 H   0  0  0  0  0  0  0  0  0  0  0  0
  1  2  1  0
  2  3  1  0
  3  4  1  0
  4  5  1  0
  5  6  1  0
  6  7  2  0
  7  8  1  0
  8  9  2  0
  9 10  1  0
 10 11  2  0
 11 12  1  0
 12 13  1  0
 13 14  1  0
 14 15  1  0
 15 16  1  0
  9 17  1  0
 17 18  2  0
 18 19  1  0
 19 20  2  0
 20 21  1  0
 21 22  1  0
 22 23  2  0
 23 24  1  0
 24 25  2  0
 25 26  1  0
 26 27  2  0
 26 28  1  0
 28 29  3  0
 11  6  1  0
 20  8  1  0
 27 22  1  0
  1 30  1  0
  1 31  1  0
  1 32  1  0
  3 33  1  0
  3 34  1  0
  4 35  1  0
  4 36  1  0
  7 37  1  0
 10 38  1  0
 13 39  1  0
 13 40  1  0
 14 41  1  0
 14 42  1  0
 16 43  1  0
 16 44  1  0
 16 45  1  0
 18 46  1  0
 21 47  1  0
 23 48  1  0
 24 49  1  0
 25 50  1  0
 27 51  1  0
 29 52  1  0
M  END
>  <energy_abs>  (200) 
58.45340507084382

>  <SMILES>  (200) 
COCCOc1cc2c(cc1OCCOC)ncnc2Nc3cccc(c3)C#C

>  <cluster_no>  (200) 
200

>  <fda_drugs_id>  (200) 
AAKJLRGGTJKAMG-UHFFFAOYSA-N

>  <initial_conformation_id>  (200) 
98

>  <minimize_method>  (200) 
MMFF

$$$$

     RDKit          3D

 52 54  0  0  0  0  0  0  0  0999 V2000
    0.2451   -4.8615    2.0692 C   0  0  0  0  0  0  0  0  0  0  0  0
   -0.3158   -4.2216    0.9300 O   0  0  0  0  0  0  0  0  0  0  0  0
   -1.0160   -3.0308    1.2884 C   0  0  0  0  0  0  0  0  0  0  0  0
   -1.6560   -2.4276    0.0405 C   0  0  0  0  0  0  0  0  0  0  0  0
   -2.2993   -1.1899    0.3344 O   0  0  0  0  0  0  0  0  0  0  0  0
   -1.5717   -0.0287    0.3271 C   0  0  0  0  0  0  0  0  0  0  0  0
   -0.2093    0.0636    0.0393 C   0  0  0  0  0  0  0  0  0  0  0  0
    0.4632    1.3140    0.0602 C   0  0  0  0  0  0  0  0  0  0  0  0
   -0.2585    2.4756    0.3578 C   0  0  0  0  0  0  0  0  0  0  0  0
   -1.6131    2.3716    0.6453 C   0  0  0  0  0  0  0  0  0  0  0  0
   -2.2811    1.1423    0.6369 C   0  0  0  0  0  0  0  0  0  0  0  0
   -3.6144    0.9801    0.9198 O   0  0  0  0  0  0  0  0  0  0  0  0
   -4.3957    2.1493    1.1571 C   0  0  0  0  0  0  0  0  0  0  0  0
   -5.8413    1.7203    1.4070 C   0  0  0  0  0  0  0  0  0  0  0  0
   -6.6887    2.8315    1.7002 O   0  0  0  0  0  0  0  0  0  0  0  0
   -7.1500    3.4999    0.5335 C   0  0  0  0  0  0  0  0  0  0  0  0
    0.3002    3.6881    0.3788 N   0  0  0  0  0  0  0  0  0  0  0  0
    1.6034    3.7552    0.0898 C   0  0  0  0  0  0  0  0  0  0  0  0
    2.3984    2.7247   -0.2048 N   0  0  0  0  0  0  0  0  0  0  0  0
    1.8352    1.5035   -0.2107 C   0  0  0  0  0  0  0  0  0  0  0  0
    2.6430    0.3645   -0.4795 N   0  0  0  0  0  0  0  0  0  0  0  0
    3.9453    0.3159   -1.0280 C   0  0  0  0  0  0  0  0  0  0  0  0
    4.4299    1.2817   -1.9183 C   0  0  0  0  0  0  0  0  0  0  0  0
    5.6982    1.1626   -2.4947 C   0  0  0  0  0  0  0  0  0  0  0  0
    6.4943    0.0562   -2.2082 C   0  0  0  0  0  0  0  0  0  0  0  0
    6.0156   -0.9364   -1.3549 C   0  0  0  0  0  0  0  0  0  0  0  0
    4.7454   -0.8118   -0.7805 C   0  0  0  0  0  0  0  0  0  0  0  0
    6.8189   -2.0864   -1.0718 C   0  0  0  0  0  0  0  0  0  0  0  0
    7.4933   -3.0514   -0.8348 C   0  0  0  0  0  0  0  0  0  0  0  0
    0.9616   -4.2000    2.5657 H   0  0  0  0  0  0  0  0  0  0  0  0
    0.7718   -5.7594    1.7351 H   0  0  0  0  0  0  0  0  0  0  0  0
   -0.5426   -5.1580    2.7684 H   0  0  0  0  0  0  0  0  0  0  0  0
   -0.3188   -2.3225    1.7495 H   0  0  0  0  0  0  0  0  0  0  0  0
   -1.7945   -3.2564    2.0273 H   0  0  0  0  0  0  0  0  0  0  0  0
   -0.9598   -2.3554   -0.8031 H   0  0  0  0  0  0  0  0  0  0  0  0
   -2.4363   -3.1147   -0.3098 H   0  0  0  0  0  0  0  0  0  0  0  0
    0.3613   -0.8211   -0.2217 H   0  0  0  0  0  0  0  0  0  0  0  0
   -2.1355    3.2939    0.8803 H   0  0  0  0  0  0  0  0  0  0  0  0
   -4.0280    2.6893    2.0382 H   0  0  0  0  0  0  0  0  0  0  0  0
   -4.3522    2.8165    0.2889 H   0  0  0  0  0  0  0  0  0  0  0  0
   -5.8667    1.0532    2.2764 H   0  0  0  0  0  0  0  0  0  0  0  0
   -6.2350    1.1358    0.5663 H   0  0  0  0  0  0  0  0  0  0  0  0
   -6.3166    3.9337   -0.0254 H   0  0  0  0  0  0  0  0  0  0  0  0
   -7.8144    4.3106    0.8447 H   0  0  0  0  0  0  0  0  0  0  0  0
   -7.7160    2.8137   -0.1038 H   0  0  0  0  0  0  0  0  0  0  0  0
    2.0588    4.7395    0.0982 H   0  0  0  0  0  0  0  0  0  0  0  0
    2.5412   -0.2965    0.2836 H   0  0  0  0  0  0  0  0  0  0  0  0
    3.8210    2.1424   -2.1822 H   0  0  0  0  0  0  0  0  0  0  0  0
    6.0572    1.9321   -3.1730 H   0  0  0  0  0  0  0  0  0  0  0  0
    7.4786   -0.0311   -2.6613 H   0  0  0  0  0  0  0  0  0  0  0  0
    4.3822   -1.6046   -0.1313 H   0  0  0  0  0  0  0  0  0  0  0  0
    8.0929   -3.9066   -0.6266 H   0  0  0  0  0  0  0  0  0  0  0  0
  1  2  1  0
  2  3  1  0
  3  4  1  0
  4  5  1  0
  5  6  1  0
  6  7  2  0
  7  8  1  0
  8  9  2  0
  9 10  1  0
 10 11  2  0
 11 12  1  0
 12 13  1  0
 13 14  1  0
 14 15  1  0
 15 16  1  0
  9 17  1  0
 17 18  2  0
 18 19  1  0
 19 20  2  0
 20 21  1  0
 21 22  1  0
 22 23  2  0
 23 24  1  0
 24 25  2  0
 25 26  1  0
 26 27  2  0
 26 28  1  0
 28 29  3  0
 11  6  1  0
 20  8  1  0
 27 22  1  0
  1 30  1  0
  1 31  1  0
  1 32  1  0
  3 33  1  0
  3 34  1  0
  4 35  1  0
  4 36  1  0
  7 37  1  0
 10 38  1  0
 13 39  1  0
 13 40  1  0
 14 41  1  0
 14 42  1  0
 16 43  1  0
 16 44  1  0
 16 45  1  0
 18 46  1  0
 21 47  1  0
 23 48  1  0
 24 49  1  0
 25 50  1  0
 27 51  1  0
 29 52  1  0
M  END
>  <energy_abs>  (201) 
58.6565050490325

>  <SMILES>  (201) 
COCCOc1cc2c(cc1OCCOC)ncnc2Nc3cccc(c3)C#C

>  <cluster_no>  (201) 
201

>  <fda_drugs_id>  (201) 
AAKJLRGGTJKAMG-UHFFFAOYSA-N

>  <initial_conformation_id>  (201) 
97

>  <minimize_method>  (201) 
MMFF

$$$$

     RDKit          3D

 52 54  0  0  0  0  0  0  0  0999 V2000
   -1.3895   -5.1642    0.6986 C   0  0  0  0  0  0  0  0  0  0  0  0
   -1.6266   -4.4212    1.8898 O   0  0  0  0  0  0  0  0  0  0  0  0
   -2.2832   -3.1750    1.6522 C   0  0  0  0  0  0  0  0  0  0  0  0
   -1.3160   -2.0896    1.1816 C   0  0  0  0  0  0  0  0  0  0  0  0
   -2.0438   -0.8634    1.0558 O   0  0  0  0  0  0  0  0  0  0  0  0
   -1.3098    0.2803    0.9000 C   0  0  0  0  0  0  0  0  0  0  0  0
    0.0076    0.3301    0.4478 C   0  0  0  0  0  0  0  0  0  0  0  0
    0.6948    1.5708    0.3218 C   0  0  0  0  0  0  0  0  0  0  0  0
    0.0308    2.7656    0.6386 C   0  0  0  0  0  0  0  0  0  0  0  0
   -1.2814    2.7037    1.0790 C   0  0  0  0  0  0  0  0  0  0  0  0
   -1.9536    1.4851    1.1899 C   0  0  0  0  0  0  0  0  0  0  0  0
   -3.2353    1.5081    1.6784 O   0  0  0  0  0  0  0  0  0  0  0  0
   -4.1844    1.4325    0.6063 C   0  0  0  0  0  0  0  0  0  0  0  0
   -5.5807    1.3027    1.2121 C   0  0  0  0  0  0  0  0  0  0  0  0
   -6.5990    1.1659    0.2203 O   0  0  0  0  0  0  0  0  0  0  0  0
   -6.9699    2.4042   -0.3701 C   0  0  0  0  0  0  0  0  0  0  0  0
    0.6062    3.9662    0.5307 N   0  0  0  0  0  0  0  0  0  0  0  0
    1.8674    3.9898    0.0898 C   0  0  0  0  0  0  0  0  0  0  0  0
    2.6054    2.9278   -0.2427 N   0  0  0  0  0  0  0  0  0  0  0  0
    2.0270    1.7188   -0.1185 C   0  0  0  0  0  0  0  0  0  0  0  0
    2.7798    0.5496   -0.4199 N   0  0  0  0  0  0  0  0  0  0  0  0
    4.0049    0.4440   -1.1193 C   0  0  0  0  0  0  0  0  0  0  0  0
    4.4010    1.3615   -2.1005 C   0  0  0  0  0  0  0  0  0  0  0  0
    5.5853    1.1822   -2.8234 C   0  0  0  0  0  0  0  0  0  0  0  0
    6.3796    0.0609   -2.5956 C   0  0  0  0  0  0  0  0  0  0  0  0
    5.9825   -0.8867   -1.6536 C   0  0  0  0  0  0  0  0  0  0  0  0
    4.7982   -0.7004   -0.9302 C   0  0  0  0  0  0  0  0  0  0  0  0
    6.7779   -2.0559   -1.4352 C   0  0  0  0  0  0  0  0  0  0  0  0
    7.4438   -3.0388   -1.2542 C   0  0  0  0  0  0  0  0  0  0  0  0
   -0.6432   -4.6612    0.0779 H   0  0  0  0  0  0  0  0  0  0  0  0
   -0.9953   -6.1476    0.9803 H   0  0  0  0  0  0  0  0  0  0  0  0
   -2.3192   -5.3111    0.1353 H   0  0  0  0  0  0  0  0  0  0  0  0
   -3.1159   -3.2978    0.9474 H   0  0  0  0  0  0  0  0  0  0  0  0
   -2.7354   -2.8597    2.6009 H   0  0  0  0  0  0  0  0  0  0  0  0
   -0.8874   -2.3700    0.2106 H   0  0  0  0  0  0  0  0  0  0  0  0
   -0.5016   -1.9948    1.9141 H   0  0  0  0  0  0  0  0  0  0  0  0
    0.5206   -0.5820    0.1604 H   0  0  0  0  0  0  0  0  0  0  0  0
   -1.7969    3.6252    1.3406 H   0  0  0  0  0  0  0  0  0  0  0  0
   -4.1190    2.3399   -0.0054 H   0  0  0  0  0  0  0  0  0  0  0  0
   -3.9949    0.5725   -0.0476 H   0  0  0  0  0  0  0  0  0  0  0  0
   -5.6117    0.4011    1.8347 H   0  0  0  0  0  0  0  0  0  0  0  0
   -5.8015    2.1404    1.8848 H   0  0  0  0  0  0  0  0  0  0  0  0
   -7.7998    2.2187   -1.0576 H   0  0  0  0  0  0  0  0  0  0  0  0
   -7.3056    3.1122    0.3945 H   0  0  0  0  0  0  0  0  0  0  0  0
   -6.1401    2.8297   -0.9410 H   0  0  0  0  0  0  0  0  0  0  0  0
    2.3365    4.9638   -0.0060 H   0  0  0  0  0  0  0  0  0  0  0  0
    2.7685   -0.0607    0.3918 H   0  0  0  0  0  0  0  0  0  0  0  0
    3.7881    2.2318   -2.3223 H   0  0  0  0  0  0  0  0  0  0  0  0
    5.8786    1.9167   -3.5693 H   0  0  0  0  0  0  0  0  0  0  0  0
    7.2967   -0.0742   -3.1643 H   0  0  0  0  0  0  0  0  0  0  0  0
    4.4966   -1.4588   -0.2119 H   0  0  0  0  0  0  0  0  0  0  0  0
    8.0348   -3.9107   -1.0973 H   0  0  0  0  0  0  0  0  0  0  0  0
  1  2  1  0
  2  3  1  0
  3  4  1  0
  4  5  1  0
  5  6  1  0
  6  7  2  0
  7  8  1  0
  8  9  2  0
  9 10  1  0
 10 11  2  0
 11 12  1  0
 12 13  1  0
 13 14  1  0
 14 15  1  0
 15 16  1  0
  9 17  1  0
 17 18  2  0
 18 19  1  0
 19 20  2  0
 20 21  1  0
 21 22  1  0
 22 23  2  0
 23 24  1  0
 24 25  2  0
 25 26  1  0
 26 27  2  0
 26 28  1  0
 28 29  3  0
 11  6  1  0
 20  8  1  0
 27 22  1  0
  1 30  1  0
  1 31  1  0
  1 32  1  0
  3 33  1  0
  3 34  1  0
  4 35  1  0
  4 36  1  0
  7 37  1  0
 10 38  1  0
 13 39  1  0
 13 40  1  0
 14 41  1  0
 14 42  1  0
 16 43  1  0
 16 44  1  0
 16 45  1  0
 18 46  1  0
 21 47  1  0
 23 48  1  0
 24 49  1  0
 25 50  1  0
 27 51  1  0
 29 52  1  0
M  END
>  <energy_abs>  (202) 
58.9209213142148

>  <SMILES>  (202) 
COCCOc1cc2c(cc1OCCOC)ncnc2Nc3cccc(c3)C#C

>  <cluster_no>  (202) 
202

>  <fda_drugs_id>  (202) 
AAKJLRGGTJKAMG-UHFFFAOYSA-N

>  <initial_conformation_id>  (202) 
96

>  <minimize_method>  (202) 
MMFF

$$$$

     RDKit          3D

 52 54  0  0  0  0  0  0  0  0999 V2000
   -0.2988   -5.1941   -0.0288 C   0  0  0  0  0  0  0  0  0  0  0  0
   -0.2930   -4.2110    0.9985 O   0  0  0  0  0  0  0  0  0  0  0  0
   -1.1700   -3.1274    0.6930 C   0  0  0  0  0  0  0  0  0  0  0  0
   -1.1778   -2.1413    1.8585 C   0  0  0  0  0  0  0  0  0  0  0  0
   -1.9764   -0.9977    1.5642 O   0  0  0  0  0  0  0  0  0  0  0  0
   -1.4243    0.0597    0.8898 C   0  0  0  0  0  0  0  0  0  0  0  0
   -0.1032    0.1271    0.4451 C   0  0  0  0  0  0  0  0  0  0  0  0
    0.3805    1.2658   -0.2517 C   0  0  0  0  0  0  0  0  0  0  0  0
   -0.4796    2.3459   -0.4805 C   0  0  0  0  0  0  0  0  0  0  0  0
   -1.7930    2.2667   -0.0363 C   0  0  0  0  0  0  0  0  0  0  0  0
   -2.2804    1.1442    0.6419 C   0  0  0  0  0  0  0  0  0  0  0  0
   -3.5685    1.0091    1.0962 O   0  0  0  0  0  0  0  0  0  0  0  0
   -4.4531    2.1170    0.9411 C   0  0  0  0  0  0  0  0  0  0  0  0
   -5.8040    1.7442    1.5514 C   0  0  0  0  0  0  0  0  0  0  0  0
   -6.7687    2.7857    1.3980 O   0  0  0  0  0  0  0  0  0  0  0  0
   -6.6611    3.7924    2.3958 C   0  0  0  0  0  0  0  0  0  0  0  0
   -0.0925    3.4570   -1.1116 N   0  0  0  0  0  0  0  0  0  0  0  0
    1.1794    3.5053   -1.5194 C   0  0  0  0  0  0  0  0  0  0  0  0
    2.0922    2.5441   -1.3658 N   0  0  0  0  0  0  0  0  0  0  0  0
    1.6945    1.4207   -0.7425 C   0  0  0  0  0  0  0  0  0  0  0  0
    2.6141    0.3475   -0.5859 N   0  0  0  0  0  0  0  0  0  0  0  0
    4.0189    0.3588   -0.7459 C   0  0  0  0  0  0  0  0  0  0  0  0
    4.7993    1.4982   -0.5152 C   0  0  0  0  0  0  0  0  0  0  0  0
    6.1932    1.4527   -0.6158 C   0  0  0  0  0  0  0  0  0  0  0  0
    6.8323    0.2542   -0.9244 C   0  0  0  0  0  0  0  0  0  0  0  0
    6.0768   -0.9006   -1.1198 C   0  0  0  0  0  0  0  0  0  0  0  0
    4.6819   -0.8492   -1.0181 C   0  0  0  0  0  0  0  0  0  0  0  0
    6.7271   -2.1403   -1.4168 C   0  0  0  0  0  0  0  0  0  0  0  0
    7.2732   -3.1804   -1.6656 C   0  0  0  0  0  0  0  0  0  0  0  0
    0.0373   -4.7605   -0.9755 H   0  0  0  0  0  0  0  0  0  0  0  0
    0.3922   -5.9924    0.2549 H   0  0  0  0  0  0  0  0  0  0  0  0
   -1.2994   -5.6220   -0.1436 H   0  0  0  0  0  0  0  0  0  0  0  0
   -0.8375   -2.6377   -0.2290 H   0  0  0  0  0  0  0  0  0  0  0  0
   -2.1872   -3.4997    0.5208 H   0  0  0  0  0  0  0  0  0  0  0  0
   -1.6391   -2.6362    2.7221 H   0  0  0  0  0  0  0  0  0  0  0  0
   -0.1702   -1.8797    2.2020 H   0  0  0  0  0  0  0  0  0  0  0  0
    0.5865   -0.6875    0.6373 H   0  0  0  0  0  0  0  0  0  0  0  0
   -2.4311    3.1209   -0.2414 H   0  0  0  0  0  0  0  0  0  0  0  0
   -4.0478    2.9990    1.4494 H   0  0  0  0  0  0  0  0  0  0  0  0
   -4.5959    2.3537   -0.1203 H   0  0  0  0  0  0  0  0  0  0  0  0
   -6.1939    0.8603    1.0336 H   0  0  0  0  0  0  0  0  0  0  0  0
   -5.6999    1.4557    2.6047 H   0  0  0  0  0  0  0  0  0  0  0  0
   -7.4519    4.5280    2.2252 H   0  0  0  0  0  0  0  0  0  0  0  0
   -6.7980    3.3617    3.3923 H   0  0  0  0  0  0  0  0  0  0  0  0
   -5.6968    4.3038    2.3347 H   0  0  0  0  0  0  0  0  0  0  0  0
    1.4995    4.4096   -2.0253 H   0  0  0  0  0  0  0  0  0  0  0  0
    2.2064   -0.4932   -0.9816 H   0  0  0  0  0  0  0  0  0  0  0  0
    4.3310    2.4413   -0.2461 H   0  0  0  0  0  0  0  0  0  0  0  0
    6.7763    2.3537   -0.4446 H   0  0  0  0  0  0  0  0  0  0  0  0
    7.9163    0.2256   -0.9993 H   0  0  0  0  0  0  0  0  0  0  0  0
    4.1108   -1.7639   -1.1566 H   0  0  0  0  0  0  0  0  0  0  0  0
    7.7598   -4.1020   -1.8857 H   0  0  0  0  0  0  0  0  0  0  0  0
  1  2  1  0
  2  3  1  0
  3  4  1  0
  4  5  1  0
  5  6  1  0
  6  7  2  0
  7  8  1  0
  8  9  2  0
  9 10  1  0
 10 11  2  0
 11 12  1  0
 12 13  1  0
 13 14  1  0
 14 15  1  0
 15 16  1  0
  9 17  1  0
 17 18  2  0
 18 19  1  0
 19 20  2  0
 20 21  1  0
 21 22  1  0
 22 23  2  0
 23 24  1  0
 24 25  2  0
 25 26  1  0
 26 27  2  0
 26 28  1  0
 28 29  3  0
 11  6  1  0
 20  8  1  0
 27 22  1  0
  1 30  1  0
  1 31  1  0
  1 32  1  0
  3 33  1  0
  3 34  1  0
  4 35  1  0
  4 36  1  0
  7 37  1  0
 10 38  1  0
 13 39  1  0
 13 40  1  0
 14 41  1  0
 14 42  1  0
 16 43  1  0
 16 44  1  0
 16 45  1  0
 18 46  1  0
 21 47  1  0
 23 48  1  0
 24 49  1  0
 25 50  1  0
 27 51  1  0
 29 52  1  0
M  END
>  <energy_abs>  (203) 
58.656610771683624

>  <SMILES>  (203) 
COCCOc1cc2c(cc1OCCOC)ncnc2Nc3cccc(c3)C#C

>  <cluster_no>  (203) 
203

>  <fda_drugs_id>  (203) 
AAKJLRGGTJKAMG-UHFFFAOYSA-N

>  <initial_conformation_id>  (203) 
95

>  <minimize_method>  (203) 
MMFF

$$$$

     RDKit          3D

 52 54  0  0  0  0  0  0  0  0999 V2000
   -1.1797   -5.4416   -0.1839 C   0  0  0  0  0  0  0  0  0  0  0  0
   -0.9288   -4.5395    0.8862 O   0  0  0  0  0  0  0  0  0  0  0  0
   -1.6670   -3.3274    0.7350 C   0  0  0  0  0  0  0  0  0  0  0  0
   -1.4208   -2.4320    1.9468 C   0  0  0  0  0  0  0  0  0  0  0  0
   -2.0741   -1.1732    1.8021 O   0  0  0  0  0  0  0  0  0  0  0  0
   -1.4510   -0.1595    1.1223 C   0  0  0  0  0  0  0  0  0  0  0  0
   -0.1808   -0.2392    0.5499 C   0  0  0  0  0  0  0  0  0  0  0  0
    0.3825    0.8634   -0.1447 C   0  0  0  0  0  0  0  0  0  0  0  0
   -0.3447    2.0549   -0.2440 C   0  0  0  0  0  0  0  0  0  0  0  0
   -1.6084    2.1224    0.3285 C   0  0  0  0  0  0  0  0  0  0  0  0
   -2.1711    1.0409    1.0143 C   0  0  0  0  0  0  0  0  0  0  0  0
   -3.4200    1.0451    1.5822 O   0  0  0  0  0  0  0  0  0  0  0  0
   -4.0663    2.2949    1.8181 C   0  0  0  0  0  0  0  0  0  0  0  0
   -5.0383    2.6256    0.6856 C   0  0  0  0  0  0  0  0  0  0  0  0
   -5.6348    3.9132    0.8429 O   0  0  0  0  0  0  0  0  0  0  0  0
   -6.7048    3.9221    1.7786 C   0  0  0  0  0  0  0  0  0  0  0  0
    0.1237    3.1366   -0.8707 N   0  0  0  0  0  0  0  0  0  0  0  0
    1.3465    3.0429   -1.4021 C   0  0  0  0  0  0  0  0  0  0  0  0
    2.1342    1.9661   -1.3775 N   0  0  0  0  0  0  0  0  0  0  0  0
    1.6532    0.8738   -0.7584 C   0  0  0  0  0  0  0  0  0  0  0  0
    2.4348   -0.3138   -0.7349 N   0  0  0  0  0  0  0  0  0  0  0  0
    3.8091   -0.4689   -1.0299 C   0  0  0  0  0  0  0  0  0  0  0  0
    4.2810   -1.7338   -1.4172 C   0  0  0  0  0  0  0  0  0  0  0  0
    5.6397   -1.9568   -1.6567 C   0  0  0  0  0  0  0  0  0  0  0  0
    6.5546   -0.9206   -1.4867 C   0  0  0  0  0  0  0  0  0  0  0  0
    6.1110    0.3324   -1.0652 C   0  0  0  0  0  0  0  0  0  0  0  0
    4.7490    0.5497   -0.8267 C   0  0  0  0  0  0  0  0  0  0  0  0
    7.0511    1.3931   -0.8661 C   0  0  0  0  0  0  0  0  0  0  0  0
    7.8390    2.2837   -0.6986 C   0  0  0  0  0  0  0  0  0  0  0  0
   -0.5855   -6.3444   -0.0194 H   0  0  0  0  0  0  0  0  0  0  0  0
   -2.2377   -5.7194   -0.2104 H   0  0  0  0  0  0  0  0  0  0  0  0
   -0.8822   -4.9959   -1.1380 H   0  0  0  0  0  0  0  0  0  0  0  0
   -2.7389   -3.5440    0.6510 H   0  0  0  0  0  0  0  0  0  0  0  0
   -1.3585   -2.8259   -0.1889 H   0  0  0  0  0  0  0  0  0  0  0  0
   -0.3578   -2.3337    2.1953 H   0  0  0  0  0  0  0  0  0  0  0  0
   -1.8612   -2.9181    2.8262 H   0  0  0  0  0  0  0  0  0  0  0  0
    0.4092   -1.1449    0.6377 H   0  0  0  0  0  0  0  0  0  0  0  0
   -2.1487    3.0570    0.2100 H   0  0  0  0  0  0  0  0  0  0  0  0
   -3.3665    3.1141    2.0221 H   0  0  0  0  0  0  0  0  0  0  0  0
   -4.6320    2.1758    2.7491 H   0  0  0  0  0  0  0  0  0  0  0  0
   -5.8064    1.8488    0.5859 H   0  0  0  0  0  0  0  0  0  0  0  0
   -4.5014    2.6367   -0.2687 H   0  0  0  0  0  0  0  0  0  0  0  0
   -7.1395    4.9254    1.7901 H   0  0  0  0  0  0  0  0  0  0  0  0
   -6.3457    3.6929    2.7853 H   0  0  0  0  0  0  0  0  0  0  0  0
   -7.4820    3.2111    1.4825 H   0  0  0  0  0  0  0  0  0  0  0  0
    1.7341    3.9233   -1.9030 H   0  0  0  0  0  0  0  0  0  0  0  0
    1.8871   -1.0736   -1.1246 H   0  0  0  0  0  0  0  0  0  0  0  0
    3.5905   -2.5644   -1.5405 H   0  0  0  0  0  0  0  0  0  0  0  0
    5.9834   -2.9395   -1.9685 H   0  0  0  0  0  0  0  0  0  0  0  0
    7.6111   -1.0975   -1.6719 H   0  0  0  0  0  0  0  0  0  0  0  0
    4.4271    1.5253   -0.4721 H   0  0  0  0  0  0  0  0  0  0  0  0
    8.5353    3.0754   -0.5494 H   0  0  0  0  0  0  0  0  0  0  0  0
  1  2  1  0
  2  3  1  0
  3  4  1  0
  4  5  1  0
  5  6  1  0
  6  7  2  0
  7  8  1  0
  8  9  2  0
  9 10  1  0
 10 11  2  0
 11 12  1  0
 12 13  1  0
 13 14  1  0
 14 15  1  0
 15 16  1  0
  9 17  1  0
 17 18  2  0
 18 19  1  0
 19 20  2  0
 20 21  1  0
 21 22  1  0
 22 23  2  0
 23 24  1  0
 24 25  2  0
 25 26  1  0
 26 27  2  0
 26 28  1  0
 28 29  3  0
 11  6  1  0
 20  8  1  0
 27 22  1  0
  1 30  1  0
  1 31  1  0
  1 32  1  0
  3 33  1  0
  3 34  1  0
  4 35  1  0
  4 36  1  0
  7 37  1  0
 10 38  1  0
 13 39  1  0
 13 40  1  0
 14 41  1  0
 14 42  1  0
 16 43  1  0
 16 44  1  0
 16 45  1  0
 18 46  1  0
 21 47  1  0
 23 48  1  0
 24 49  1  0
 25 50  1  0
 27 51  1  0
 29 52  1  0
M  END
>  <energy_abs>  (204) 
60.80464022249162

>  <SMILES>  (204) 
COCCOc1cc2c(cc1OCCOC)ncnc2Nc3cccc(c3)C#C

>  <cluster_no>  (204) 
204

>  <fda_drugs_id>  (204) 
AAKJLRGGTJKAMG-UHFFFAOYSA-N

>  <initial_conformation_id>  (204) 
94

>  <minimize_method>  (204) 
MMFF

$$$$

     RDKit          3D

 52 54  0  0  0  0  0  0  0  0999 V2000
   -1.7160   -5.6710    1.4540 C   0  0  0  0  0  0  0  0  0  0  0  0
   -0.8052   -4.7813    0.8224 O   0  0  0  0  0  0  0  0  0  0  0  0
   -1.4610   -3.7466    0.0862 C   0  0  0  0  0  0  0  0  0  0  0  0
   -1.9065   -2.5967    0.9898 C   0  0  0  0  0  0  0  0  0  0  0  0
   -2.4105   -1.5210    0.1928 O   0  0  0  0  0  0  0  0  0  0  0  0
   -1.6882   -0.3574    0.2594 C   0  0  0  0  0  0  0  0  0  0  0  0
   -0.2989   -0.3345    0.1292 C   0  0  0  0  0  0  0  0  0  0  0  0
    0.4132    0.8889    0.1663 C   0  0  0  0  0  0  0  0  0  0  0  0
   -0.2969    2.0882    0.3024 C   0  0  0  0  0  0  0  0  0  0  0  0
   -1.6831    2.0468    0.4049 C   0  0  0  0  0  0  0  0  0  0  0  0
   -2.3954    0.8446    0.3745 C   0  0  0  0  0  0  0  0  0  0  0  0
   -3.7563    0.7336    0.4829 O   0  0  0  0  0  0  0  0  0  0  0  0
   -4.5585    1.9048    0.3349 C   0  0  0  0  0  0  0  0  0  0  0  0
   -4.8427    2.5501    1.6916 C   0  0  0  0  0  0  0  0  0  0  0  0
   -5.6672    3.7096    1.5716 O   0  0  0  0  0  0  0  0  0  0  0  0
   -4.9347    4.8786    1.2270 C   0  0  0  0  0  0  0  0  0  0  0  0
    0.3018    3.2806    0.3340 N   0  0  0  0  0  0  0  0  0  0  0  0
    1.6338    3.2872    0.2145 C   0  0  0  0  0  0  0  0  0  0  0  0
    2.4186    2.2161    0.0797 N   0  0  0  0  0  0  0  0  0  0  0  0
    1.8141    1.0159    0.0630 C   0  0  0  0  0  0  0  0  0  0  0  0
    2.6018   -0.1623   -0.0449 N   0  0  0  0  0  0  0  0  0  0  0  0
    3.9602   -0.2879   -0.4170 C   0  0  0  0  0  0  0  0  0  0  0  0
    4.6628   -1.4410   -0.0307 C   0  0  0  0  0  0  0  0  0  0  0  0
    5.9870   -1.6484   -0.4266 C   0  0  0  0  0  0  0  0  0  0  0  0
    6.6235   -0.7143   -1.2397 C   0  0  0  0  0  0  0  0  0  0  0  0
    5.9309    0.4181   -1.6656 C   0  0  0  0  0  0  0  0  0  0  0  0
    4.6043    0.6198   -1.2669 C   0  0  0  0  0  0  0  0  0  0  0  0
    6.5741    1.3686   -2.5207 C   0  0  0  0  0  0  0  0  0  0  0  0
    7.1138    2.1652   -3.2399 C   0  0  0  0  0  0  0  0  0  0  0  0
   -2.3525   -6.1578    0.7090 H   0  0  0  0  0  0  0  0  0  0  0  0
   -2.3311   -5.1467    2.1921 H   0  0  0  0  0  0  0  0  0  0  0  0
   -1.1355   -6.4404    1.9725 H   0  0  0  0  0  0  0  0  0  0  0  0
   -0.7416   -3.3736   -0.6516 H   0  0  0  0  0  0  0  0  0  0  0  0
   -2.3043   -4.1438   -0.4925 H   0  0  0  0  0  0  0  0  0  0  0  0
   -1.1050   -2.2996    1.6800 H   0  0  0  0  0  0  0  0  0  0  0  0
   -2.7308   -2.9313    1.6295 H   0  0  0  0  0  0  0  0  0  0  0  0
    0.2405   -1.2626   -0.0335 H   0  0  0  0  0  0  0  0  0  0  0  0
   -2.1907    2.9995    0.5149 H   0  0  0  0  0  0  0  0  0  0  0  0
   -5.5143    1.5831   -0.0976 H   0  0  0  0  0  0  0  0  0  0  0  0
   -4.1468    2.6036   -0.4021 H   0  0  0  0  0  0  0  0  0  0  0  0
   -3.9226    2.7835    2.2397 H   0  0  0  0  0  0  0  0  0  0  0  0
   -5.3840    1.8290    2.3150 H   0  0  0  0  0  0  0  0  0  0  0  0
   -4.4576    4.7700    0.2495 H   0  0  0  0  0  0  0  0  0  0  0  0
   -4.1810    5.0992    1.9902 H   0  0  0  0  0  0  0  0  0  0  0  0
   -5.6330    5.7179    1.1767 H   0  0  0  0  0  0  0  0  0  0  0  0
    2.1242    4.2541    0.2315 H   0  0  0  0  0  0  0  0  0  0  0  0
    2.3728   -0.7829    0.7238 H   0  0  0  0  0  0  0  0  0  0  0  0
    4.1837   -2.1947    0.5894 H   0  0  0  0  0  0  0  0  0  0  0  0
    6.5172   -2.5410   -0.1064 H   0  0  0  0  0  0  0  0  0  0  0  0
    7.6533   -0.8788   -1.5474 H   0  0  0  0  0  0  0  0  0  0  0  0
    4.0740    1.4942   -1.6334 H   0  0  0  0  0  0  0  0  0  0  0  0
    7.5899    2.8726   -3.8784 H   0  0  0  0  0  0  0  0  0  0  0  0
  1  2  1  0
  2  3  1  0
  3  4  1  0
  4  5  1  0
  5  6  1  0
  6  7  2  0
  7  8  1  0
  8  9  2  0
  9 10  1  0
 10 11  2  0
 11 12  1  0
 12 13  1  0
 13 14  1  0
 14 15  1  0
 15 16  1  0
  9 17  1  0
 17 18  2  0
 18 19  1  0
 19 20  2  0
 20 21  1  0
 21 22  1  0
 22 23  2  0
 23 24  1  0
 24 25  2  0
 25 26  1  0
 26 27  2  0
 26 28  1  0
 28 29  3  0
 11  6  1  0
 20  8  1  0
 27 22  1  0
  1 30  1  0
  1 31  1  0
  1 32  1  0
  3 33  1  0
  3 34  1  0
  4 35  1  0
  4 36  1  0
  7 37  1  0
 10 38  1  0
 13 39  1  0
 13 40  1  0
 14 41  1  0
 14 42  1  0
 16 43  1  0
 16 44  1  0
 16 45  1  0
 18 46  1  0
 21 47  1  0
 23 48  1  0
 24 49  1  0
 25 50  1  0
 27 51  1  0
 29 52  1  0
M  END
>  <energy_abs>  (205) 
62.08740338191252

>  <SMILES>  (205) 
COCCOc1cc2c(cc1OCCOC)ncnc2Nc3cccc(c3)C#C

>  <cluster_no>  (205) 
205

>  <fda_drugs_id>  (205) 
AAKJLRGGTJKAMG-UHFFFAOYSA-N

>  <initial_conformation_id>  (205) 
93

>  <minimize_method>  (205) 
MMFF

$$$$

     RDKit          3D

 52 54  0  0  0  0  0  0  0  0999 V2000
   -1.3936   -5.3699    0.3094 C   0  0  0  0  0  0  0  0  0  0  0  0
   -1.4956   -4.6613    1.5378 O   0  0  0  0  0  0  0  0  0  0  0  0
   -2.2306   -3.4432    1.4170 C   0  0  0  0  0  0  0  0  0  0  0  0
   -1.3510   -2.2939    0.9265 C   0  0  0  0  0  0  0  0  0  0  0  0
   -2.1409   -1.1076    0.8833 O   0  0  0  0  0  0  0  0  0  0  0  0
   -1.5673    0.0282    0.3730 C   0  0  0  0  0  0  0  0  0  0  0  0
   -0.2092    0.1702    0.0854 C   0  0  0  0  0  0  0  0  0  0  0  0
    0.3064    1.3893   -0.4252 C   0  0  0  0  0  0  0  0  0  0  0  0
   -0.5666    2.4580   -0.6589 C   0  0  0  0  0  0  0  0  0  0  0  0
   -1.9153    2.3054   -0.3622 C   0  0  0  0  0  0  0  0  0  0  0  0
   -2.4303    1.1137    0.1562 C   0  0  0  0  0  0  0  0  0  0  0  0
   -3.7485    0.8966    0.4638 O   0  0  0  0  0  0  0  0  0  0  0  0
   -4.6675    1.9927    0.4841 C   0  0  0  0  0  0  0  0  0  0  0  0
   -4.5341    2.8429    1.7528 C   0  0  0  0  0  0  0  0  0  0  0  0
   -5.1811    2.2639    2.8920 O   0  0  0  0  0  0  0  0  0  0  0  0
   -4.5233    1.1052    3.3895 C   0  0  0  0  0  0  0  0  0  0  0  0
   -0.1592    3.6274   -1.1577 N   0  0  0  0  0  0  0  0  0  0  0  0
    1.1425    3.7402   -1.4409 C   0  0  0  0  0  0  0  0  0  0  0  0
    2.0719    2.8001   -1.2588 N   0  0  0  0  0  0  0  0  0  0  0  0
    1.6602    1.6293   -0.7411 C   0  0  0  0  0  0  0  0  0  0  0  0
    2.6143    0.6073   -0.4810 N   0  0  0  0  0  0  0  0  0  0  0  0
    3.9440    0.5062   -0.9519 C   0  0  0  0  0  0  0  0  0  0  0  0
    4.3540    1.0365   -2.1812 C   0  0  0  0  0  0  0  0  0  0  0  0
    5.6595    0.8549   -2.6478 C   0  0  0  0  0  0  0  0  0  0  0  0
    6.5713    0.1135   -1.9001 C   0  0  0  0  0  0  0  0  0  0  0  0
    6.1726   -0.4556   -0.6919 C   0  0  0  0  0  0  0  0  0  0  0  0
    4.8647   -0.2702   -0.2293 C   0  0  0  0  0  0  0  0  0  0  0  0
    7.0976   -1.2355    0.0725 C   0  0  0  0  0  0  0  0  0  0  0  0
    7.8739   -1.8897    0.7139 C   0  0  0  0  0  0  0  0  0  0  0  0
   -2.3877   -5.6296   -0.0671 H   0  0  0  0  0  0  0  0  0  0  0  0
   -0.8408   -6.2951    0.4938 H   0  0  0  0  0  0  0  0  0  0  0  0
   -0.8484   -4.7854   -0.4364 H   0  0  0  0  0  0  0  0  0  0  0  0
   -2.6153   -3.1942    2.4128 H   0  0  0  0  0  0  0  0  0  0  0  0
   -3.1115   -3.5740    0.7763 H   0  0  0  0  0  0  0  0  0  0  0  0
   -0.9579   -2.5267   -0.0697 H   0  0  0  0  0  0  0  0  0  0  0  0
   -0.5092   -2.1715    1.6189 H   0  0  0  0  0  0  0  0  0  0  0  0
    0.4747   -0.6579    0.2394 H   0  0  0  0  0  0  0  0  0  0  0  0
   -2.5545    3.1593   -0.5601 H   0  0  0  0  0  0  0  0  0  0  0  0
   -4.5755    2.5963   -0.4246 H   0  0  0  0  0  0  0  0  0  0  0  0
   -5.6694    1.5488    0.4577 H   0  0  0  0  0  0  0  0  0  0  0  0
   -5.0394    3.7988    1.5797 H   0  0  0  0  0  0  0  0  0  0  0  0
   -3.4911    3.0617    2.0046 H   0  0  0  0  0  0  0  0  0  0  0  0
   -3.4510    1.2825    3.5159 H   0  0  0  0  0  0  0  0  0  0  0  0
   -4.6974    0.2507    2.7309 H   0  0  0  0  0  0  0  0  0  0  0  0
   -4.9519    0.8666    4.3670 H   0  0  0  0  0  0  0  0  0  0  0  0
    1.4756    4.6858   -1.8547 H   0  0  0  0  0  0  0  0  0  0  0  0
    2.5518    0.3483    0.4985 H   0  0  0  0  0  0  0  0  0  0  0  0
    3.6574    1.5974   -2.7988 H   0  0  0  0  0  0  0  0  0  0  0  0
    5.9581    1.2877   -3.5989 H   0  0  0  0  0  0  0  0  0  0  0  0
    7.5843   -0.0251   -2.2693 H   0  0  0  0  0  0  0  0  0  0  0  0
    4.5679   -0.7350    0.7075 H   0  0  0  0  0  0  0  0  0  0  0  0
    8.5640   -2.4693    1.2816 H   0  0  0  0  0  0  0  0  0  0  0  0
  1  2  1  0
  2  3  1  0
  3  4  1  0
  4  5  1  0
  5  6  1  0
  6  7  2  0
  7  8  1  0
  8  9  2  0
  9 10  1  0
 10 11  2  0
 11 12  1  0
 12 13  1  0
 13 14  1  0
 14 15  1  0
 15 16  1  0
  9 17  1  0
 17 18  2  0
 18 19  1  0
 19 20  2  0
 20 21  1  0
 21 22  1  0
 22 23  2  0
 23 24  1  0
 24 25  2  0
 25 26  1  0
 26 27  2  0
 26 28  1  0
 28 29  3  0
 11  6  1  0
 20  8  1  0
 27 22  1  0
  1 30  1  0
  1 31  1  0
  1 32  1  0
  3 33  1  0
  3 34  1  0
  4 35  1  0
  4 36  1  0
  7 37  1  0
 10 38  1  0
 13 39  1  0
 13 40  1  0
 14 41  1  0
 14 42  1  0
 16 43  1  0
 16 44  1  0
 16 45  1  0
 18 46  1  0
 21 47  1  0
 23 48  1  0
 24 49  1  0
 25 50  1  0
 27 51  1  0
 29 52  1  0
M  END
>  <energy_abs>  (206) 
60.5212192361067

>  <SMILES>  (206) 
COCCOc1cc2c(cc1OCCOC)ncnc2Nc3cccc(c3)C#C

>  <cluster_no>  (206) 
206

>  <fda_drugs_id>  (206) 
AAKJLRGGTJKAMG-UHFFFAOYSA-N

>  <initial_conformation_id>  (206) 
92

>  <minimize_method>  (206) 
MMFF

$$$$

     RDKit          3D

 52 54  0  0  0  0  0  0  0  0999 V2000
   -1.6554   -5.5038    0.3295 C   0  0  0  0  0  0  0  0  0  0  0  0
   -1.7528   -4.8720    1.5995 O   0  0  0  0  0  0  0  0  0  0  0  0
   -2.3743   -3.5880    1.5346 C   0  0  0  0  0  0  0  0  0  0  0  0
   -1.3767   -2.4910    1.1652 C   0  0  0  0  0  0  0  0  0  0  0  0
   -2.0604   -1.2398    1.1642 O   0  0  0  0  0  0  0  0  0  0  0  0
   -1.3639   -0.1274    0.7684 C   0  0  0  0  0  0  0  0  0  0  0  0
    0.0138   -0.0901    0.5487 C   0  0  0  0  0  0  0  0  0  0  0  0
    0.6588    1.1085    0.1474 C   0  0  0  0  0  0  0  0  0  0  0  0
   -0.1037    2.2661   -0.0475 C   0  0  0  0  0  0  0  0  0  0  0  0
   -1.4729    2.2174    0.1817 C   0  0  0  0  0  0  0  0  0  0  0  0
   -2.1153    1.0443    0.5921 C   0  0  0  0  0  0  0  0  0  0  0  0
   -3.4619    0.9365    0.8331 O   0  0  0  0  0  0  0  0  0  0  0  0
   -4.2617    2.1098    0.6988 C   0  0  0  0  0  0  0  0  0  0  0  0
   -5.7094    1.7463    1.0277 C   0  0  0  0  0  0  0  0  0  0  0  0
   -6.5915    2.8585    0.8744 O   0  0  0  0  0  0  0  0  0  0  0  0
   -6.6074    3.7148    2.0089 C   0  0  0  0  0  0  0  0  0  0  0  0
    0.4298    3.4234   -0.4462 N   0  0  0  0  0  0  0  0  0  0  0  0
    1.7484    3.4344   -0.6661 C   0  0  0  0  0  0  0  0  0  0  0  0
    2.5810    2.4035   -0.5090 N   0  0  0  0  0  0  0  0  0  0  0  0
    2.0421    1.2439   -0.0933 C   0  0  0  0  0  0  0  0  0  0  0  0
    2.8893    0.1246    0.1355 N   0  0  0  0  0  0  0  0  0  0  0  0
    4.2260   -0.0628   -0.2868 C   0  0  0  0  0  0  0  0  0  0  0  0
    5.0444   -0.9550    0.4247 C   0  0  0  0  0  0  0  0  0  0  0  0
    6.3510   -1.2257    0.0091 C   0  0  0  0  0  0  0  0  0  0  0  0
    6.8522   -0.6260   -1.1437 C   0  0  0  0  0  0  0  0  0  0  0  0
    6.0421    0.2334   -1.8854 C   0  0  0  0  0  0  0  0  0  0  0  0
    4.7345    0.5008   -1.4643 C   0  0  0  0  0  0  0  0  0  0  0  0
    6.5455    0.8332   -3.0834 C   0  0  0  0  0  0  0  0  0  0  0  0
    6.9671    1.3370   -4.0886 C   0  0  0  0  0  0  0  0  0  0  0  0
   -1.0291   -4.9212   -0.3514 H   0  0  0  0  0  0  0  0  0  0  0  0
   -2.6497   -5.6497   -0.1033 H   0  0  0  0  0  0  0  0  0  0  0  0
   -1.1921   -6.4841    0.4704 H   0  0  0  0  0  0  0  0  0  0  0  0
   -2.7844   -3.3734    2.5282 H   0  0  0  0  0  0  0  0  0  0  0  0
   -3.2308   -3.5969    0.8491 H   0  0  0  0  0  0  0  0  0  0  0  0
   -0.5655   -2.4869    1.9034 H   0  0  0  0  0  0  0  0  0  0  0  0
   -0.9522   -2.6938    0.1753 H   0  0  0  0  0  0  0  0  0  0  0  0
    0.6143   -0.9854    0.6708 H   0  0  0  0  0  0  0  0  0  0  0  0
   -2.0284    3.1365    0.0223 H   0  0  0  0  0  0  0  0  0  0  0  0
   -4.2164    2.4955   -0.3270 H   0  0  0  0  0  0  0  0  0  0  0  0
   -3.9098    2.8875    1.3858 H   0  0  0  0  0  0  0  0  0  0  0  0
   -5.7935    1.3127    2.0319 H   0  0  0  0  0  0  0  0  0  0  0  0
   -6.0445    0.9669    0.3336 H   0  0  0  0  0  0  0  0  0  0  0  0
   -5.6261    4.1683    2.1718 H   0  0  0  0  0  0  0  0  0  0  0  0
   -7.3293    4.5147    1.8228 H   0  0  0  0  0  0  0  0  0  0  0  0
   -6.9223    3.1648    2.9009 H   0  0  0  0  0  0  0  0  0  0  0  0
    2.1837    4.3700   -1.0002 H   0  0  0  0  0  0  0  0  0  0  0  0
    2.7592   -0.1877    1.0924 H   0  0  0  0  0  0  0  0  0  0  0  0
    4.6731   -1.4486    1.3193 H   0  0  0  0  0  0  0  0  0  0  0  0
    6.9740   -1.9082    0.5812 H   0  0  0  0  0  0  0  0  0  0  0  0
    7.8684   -0.8397   -1.4653 H   0  0  0  0  0  0  0  0  0  0  0  0
    4.1100    1.1524   -2.0699 H   0  0  0  0  0  0  0  0  0  0  0  0
    7.3387    1.7856   -4.9801 H   0  0  0  0  0  0  0  0  0  0  0  0
  1  2  1  0
  2  3  1  0
  3  4  1  0
  4  5  1  0
  5  6  1  0
  6  7  2  0
  7  8  1  0
  8  9  2  0
  9 10  1  0
 10 11  2  0
 11 12  1  0
 12 13  1  0
 13 14  1  0
 14 15  1  0
 15 16  1  0
  9 17  1  0
 17 18  2  0
 18 19  1  0
 19 20  2  0
 20 21  1  0
 21 22  1  0
 22 23  2  0
 23 24  1  0
 24 25  2  0
 25 26  1  0
 26 27  2  0
 26 28  1  0
 28 29  3  0
 11  6  1  0
 20  8  1  0
 27 22  1  0
  1 30  1  0
  1 31  1  0
  1 32  1  0
  3 33  1  0
  3 34  1  0
  4 35  1  0
  4 36  1  0
  7 37  1  0
 10 38  1  0
 13 39  1  0
 13 40  1  0
 14 41  1  0
 14 42  1  0
 16 43  1  0
 16 44  1  0
 16 45  1  0
 18 46  1  0
 21 47  1  0
 23 48  1  0
 24 49  1  0
 25 50  1  0
 27 51  1  0
 29 52  1  0
M  END
>  <energy_abs>  (207) 
58.49230206923797

>  <SMILES>  (207) 
COCCOc1cc2c(cc1OCCOC)ncnc2Nc3cccc(c3)C#C

>  <cluster_no>  (207) 
207

>  <fda_drugs_id>  (207) 
AAKJLRGGTJKAMG-UHFFFAOYSA-N

>  <initial_conformation_id>  (207) 
91

>  <minimize_method>  (207) 
MMFF

$$$$

     RDKit          3D

 52 54  0  0  0  0  0  0  0  0999 V2000
   -0.6819   -5.6374    1.2244 C   0  0  0  0  0  0  0  0  0  0  0  0
   -0.0653   -4.5773    0.5033 O   0  0  0  0  0  0  0  0  0  0  0  0
   -0.9912   -3.5752    0.0820 C   0  0  0  0  0  0  0  0  0  0  0  0
   -1.3428   -2.6081    1.2113 C   0  0  0  0  0  0  0  0  0  0  0  0
   -2.1397   -1.5330    0.7096 O   0  0  0  0  0  0  0  0  0  0  0  0
   -1.5472   -0.2967    0.6989 C   0  0  0  0  0  0  0  0  0  0  0  0
   -0.2238   -0.0954    0.3037 C   0  0  0  0  0  0  0  0  0  0  0  0
    0.3341    1.2064    0.2668 C   0  0  0  0  0  0  0  0  0  0  0  0
   -0.4697    2.3034    0.6001 C   0  0  0  0  0  0  0  0  0  0  0  0
   -1.7914    2.0859    0.9731 C   0  0  0  0  0  0  0  0  0  0  0  0
   -2.3482    0.8047    1.0266 C   0  0  0  0  0  0  0  0  0  0  0  0
   -3.6401    0.5189    1.3830 O   0  0  0  0  0  0  0  0  0  0  0  0
   -4.5249    1.5834    1.7294 C   0  0  0  0  0  0  0  0  0  0  0  0
   -5.1841    2.1881    0.4887 C   0  0  0  0  0  0  0  0  0  0  0  0
   -6.0820    3.2462    0.8277 O   0  0  0  0  0  0  0  0  0  0  0  0
   -5.4269    4.4988    0.9804 C   0  0  0  0  0  0  0  0  0  0  0  0
   -0.0236    3.5613    0.5677 N   0  0  0  0  0  0  0  0  0  0  0  0
    1.2463    3.7389    0.1886 C   0  0  0  0  0  0  0  0  0  0  0  0
    2.1094    2.7786   -0.1491 N   0  0  0  0  0  0  0  0  0  0  0  0
    1.6609    1.5115   -0.1025 C   0  0  0  0  0  0  0  0  0  0  0  0
    2.5446    0.4446   -0.4211 N   0  0  0  0  0  0  0  0  0  0  0  0
    3.8079    0.5013   -1.0534 C   0  0  0  0  0  0  0  0  0  0  0  0
    4.1517    1.4984   -1.9749 C   0  0  0  0  0  0  0  0  0  0  0  0
    5.3864    1.4828   -2.6311 C   0  0  0  0  0  0  0  0  0  0  0  0
    6.2904    0.4499   -2.3928 C   0  0  0  0  0  0  0  0  0  0  0  0
    5.9530   -0.5732   -1.5077 C   0  0  0  0  0  0  0  0  0  0  0  0
    4.7155   -0.5524   -0.8538 C   0  0  0  0  0  0  0  0  0  0  0  0
    6.8677   -1.6482   -1.2727 C   0  0  0  0  0  0  0  0  0  0  0  0
    7.6337   -2.5518   -1.0769 C   0  0  0  0  0  0  0  0  0  0  0  0
   -1.0974   -5.2761    2.1692 H   0  0  0  0  0  0  0  0  0  0  0  0
    0.0821   -6.3866    1.4502 H   0  0  0  0  0  0  0  0  0  0  0  0
   -1.4635   -6.1112    0.6224 H   0  0  0  0  0  0  0  0  0  0  0  0
   -0.5160   -3.0240   -0.7367 H   0  0  0  0  0  0  0  0  0  0  0  0
   -1.8930   -4.0290   -0.3472 H   0  0  0  0  0  0  0  0  0  0  0  0
   -0.4474   -2.2763    1.7516 H   0  0  0  0  0  0  0  0  0  0  0  0
   -1.9526   -3.1297    1.9580 H   0  0  0  0  0  0  0  0  0  0  0  0
    0.3795   -0.9403   -0.0139 H   0  0  0  0  0  0  0  0  0  0  0  0
   -2.3766    2.9669    1.2154 H   0  0  0  0  0  0  0  0  0  0  0  0
   -5.3138    1.1479    2.3553 H   0  0  0  0  0  0  0  0  0  0  0  0
   -4.0474    2.3270    2.3767 H   0  0  0  0  0  0  0  0  0  0  0  0
   -4.4476    2.5256   -0.2496 H   0  0  0  0  0  0  0  0  0  0  0  0
   -5.7713    1.4088   -0.0106 H   0  0  0  0  0  0  0  0  0  0  0  0
   -4.9342    4.7891    0.0471 H   0  0  0  0  0  0  0  0  0  0  0  0
   -6.1820    5.2519    1.2227 H   0  0  0  0  0  0  0  0  0  0  0  0
   -4.6987    4.4639    1.7960 H   0  0  0  0  0  0  0  0  0  0  0  0
    1.6109    4.7601    0.1529 H   0  0  0  0  0  0  0  0  0  0  0  0
    2.5442   -0.2253    0.3413 H   0  0  0  0  0  0  0  0  0  0  0  0
    3.4566    2.3028   -2.2013 H   0  0  0  0  0  0  0  0  0  0  0  0
    5.6351    2.2752   -3.3328 H   0  0  0  0  0  0  0  0  0  0  0  0
    7.2479    0.4432   -2.9075 H   0  0  0  0  0  0  0  0  0  0  0  0
    4.4635   -1.3678   -0.1797 H   0  0  0  0  0  0  0  0  0  0  0  0
    8.3138   -3.3527   -0.9042 H   0  0  0  0  0  0  0  0  0  0  0  0
  1  2  1  0
  2  3  1  0
  3  4  1  0
  4  5  1  0
  5  6  1  0
  6  7  2  0
  7  8  1  0
  8  9  2  0
  9 10  1  0
 10 11  2  0
 11 12  1  0
 12 13  1  0
 13 14  1  0
 14 15  1  0
 15 16  1  0
  9 17  1  0
 17 18  2  0
 18 19  1  0
 19 20  2  0
 20 21  1  0
 21 22  1  0
 22 23  2  0
 23 24  1  0
 24 25  2  0
 25 26  1  0
 26 27  2  0
 26 28  1  0
 28 29  3  0
 11  6  1  0
 20  8  1  0
 27 22  1  0
  1 30  1  0
  1 31  1  0
  1 32  1  0
  3 33  1  0
  3 34  1  0
  4 35  1  0
  4 36  1  0
  7 37  1  0
 10 38  1  0
 13 39  1  0
 13 40  1  0
 14 41  1  0
 14 42  1  0
 16 43  1  0
 16 44  1  0
 16 45  1  0
 18 46  1  0
 21 47  1  0
 23 48  1  0
 24 49  1  0
 25 50  1  0
 27 51  1  0
 29 52  1  0
M  END
>  <energy_abs>  (208) 
61.99912719193435

>  <SMILES>  (208) 
COCCOc1cc2c(cc1OCCOC)ncnc2Nc3cccc(c3)C#C

>  <cluster_no>  (208) 
208

>  <fda_drugs_id>  (208) 
AAKJLRGGTJKAMG-UHFFFAOYSA-N

>  <initial_conformation_id>  (208) 
90

>  <minimize_method>  (208) 
MMFF

$$$$

     RDKit          3D

 52 54  0  0  0  0  0  0  0  0999 V2000
   -1.3266   -5.3018   -1.2613 C   0  0  0  0  0  0  0  0  0  0  0  0
   -1.0454   -4.6286   -0.0408 O   0  0  0  0  0  0  0  0  0  0  0  0
   -1.7776   -3.4083    0.0663 C   0  0  0  0  0  0  0  0  0  0  0  0
   -1.5045   -2.7734    1.4275 C   0  0  0  0  0  0  0  0  0  0  0  0
   -2.1423   -1.5038    1.5422 O   0  0  0  0  0  0  0  0  0  0  0  0
   -1.5038   -0.3795    1.0882 C   0  0  0  0  0  0  0  0  0  0  0  0
   -0.2448   -0.3602    0.4861 C   0  0  0  0  0  0  0  0  0  0  0  0
    0.3363    0.8548    0.0375 C   0  0  0  0  0  0  0  0  0  0  0  0
   -0.3610    2.0546    0.2174 C   0  0  0  0  0  0  0  0  0  0  0  0
   -1.6132    2.0228    0.8166 C   0  0  0  0  0  0  0  0  0  0  0  0
   -2.1969    0.8302    1.2559 C   0  0  0  0  0  0  0  0  0  0  0  0
   -3.4352    0.7351    1.8390 O   0  0  0  0  0  0  0  0  0  0  0  0
   -4.1195    1.9259    2.2249 C   0  0  0  0  0  0  0  0  0  0  0  0
   -5.0144    2.4371    1.0954 C   0  0  0  0  0  0  0  0  0  0  0  0
   -5.7191    3.6223    1.4656 O   0  0  0  0  0  0  0  0  0  0  0  0
   -4.9442    4.8027    1.3004 C   0  0  0  0  0  0  0  0  0  0  0  0
    0.1237    3.2382   -0.1656 N   0  0  0  0  0  0  0  0  0  0  0  0
    1.3355    3.2367   -0.7302 C   0  0  0  0  0  0  0  0  0  0  0  0
    2.0951    2.1640   -0.9596 N   0  0  0  0  0  0  0  0  0  0  0  0
    1.5967    0.9724   -0.5856 C   0  0  0  0  0  0  0  0  0  0  0  0
    2.3488   -0.2072   -0.8383 N   0  0  0  0  0  0  0  0  0  0  0  0
    3.7137   -0.3231   -1.1897 C   0  0  0  0  0  0  0  0  0  0  0  0
    4.1470   -1.4831   -1.8525 C   0  0  0  0  0  0  0  0  0  0  0  0
    5.4954   -1.6768   -2.1649 C   0  0  0  0  0  0  0  0  0  0  0  0
    6.4388   -0.7215   -1.7947 C   0  0  0  0  0  0  0  0  0  0  0  0
    6.0340    0.4190   -1.1018 C   0  0  0  0  0  0  0  0  0  0  0  0
    4.6822    0.6074   -0.7916 C   0  0  0  0  0  0  0  0  0  0  0  0
    7.0036    1.3913   -0.6982 C   0  0  0  0  0  0  0  0  0  0  0  0
    7.8167    2.2073   -0.3591 C   0  0  0  0  0  0  0  0  0  0  0  0
   -2.3868   -5.5669   -1.3169 H   0  0  0  0  0  0  0  0  0  0  0  0
   -1.0482   -4.6775   -2.1158 H   0  0  0  0  0  0  0  0  0  0  0  0
   -0.7347   -6.2205   -1.2920 H   0  0  0  0  0  0  0  0  0  0  0  0
   -1.4815   -2.7335   -0.7444 H   0  0  0  0  0  0  0  0  0  0  0  0
   -2.8524   -3.5998   -0.0395 H   0  0  0  0  0  0  0  0  0  0  0  0
   -1.9412   -3.4187    2.1998 H   0  0  0  0  0  0  0  0  0  0  0  0
   -0.4372   -2.7381    1.6751 H   0  0  0  0  0  0  0  0  0  0  0  0
    0.3219   -1.2764    0.3610 H   0  0  0  0  0  0  0  0  0  0  0  0
   -2.1241    2.9739    0.9230 H   0  0  0  0  0  0  0  0  0  0  0  0
   -3.4406    2.6881    2.6226 H   0  0  0  0  0  0  0  0  0  0  0  0
   -4.7605    1.6621    3.0751 H   0  0  0  0  0  0  0  0  0  0  0  0
   -5.7637    1.6697    0.8686 H   0  0  0  0  0  0  0  0  0  0  0  0
   -4.4574    2.5926    0.1644 H   0  0  0  0  0  0  0  0  0  0  0  0
   -5.5623    5.6596    1.5820 H   0  0  0  0  0  0  0  0  0  0  0  0
   -4.6439    4.9206    0.2548 H   0  0  0  0  0  0  0  0  0  0  0  0
   -4.0620    4.7868    1.9457 H   0  0  0  0  0  0  0  0  0  0  0  0
    1.7386    4.1968   -1.0335 H   0  0  0  0  0  0  0  0  0  0  0  0
    1.7761   -0.8544   -1.3695 H   0  0  0  0  0  0  0  0  0  0  0  0
    3.4341   -2.2527   -2.1376 H   0  0  0  0  0  0  0  0  0  0  0  0
    5.8091   -2.5752   -2.6898 H   0  0  0  0  0  0  0  0  0  0  0  0
    7.4872   -0.8759   -2.0371 H   0  0  0  0  0  0  0  0  0  0  0  0
    4.3912    1.4890   -0.2266 H   0  0  0  0  0  0  0  0  0  0  0  0
    8.5358    2.9324   -0.0571 H   0  0  0  0  0  0  0  0  0  0  0  0
  1  2  1  0
  2  3  1  0
  3  4  1  0
  4  5  1  0
  5  6  1  0
  6  7  2  0
  7  8  1  0
  8  9  2  0
  9 10  1  0
 10 11  2  0
 11 12  1  0
 12 13  1  0
 13 14  1  0
 14 15  1  0
 15 16  1  0
  9 17  1  0
 17 18  2  0
 18 19  1  0
 19 20  2  0
 20 21  1  0
 21 22  1  0
 22 23  2  0
 23 24  1  0
 24 25  2  0
 25 26  1  0
 26 27  2  0
 26 28  1  0
 28 29  3  0
 11  6  1  0
 20  8  1  0
 27 22  1  0
  1 30  1  0
  1 31  1  0
  1 32  1  0
  3 33  1  0
  3 34  1  0
  4 35  1  0
  4 36  1  0
  7 37  1  0
 10 38  1  0
 13 39  1  0
 13 40  1  0
 14 41  1  0
 14 42  1  0
 16 43  1  0
 16 44  1  0
 16 45  1  0
 18 46  1  0
 21 47  1  0
 23 48  1  0
 24 49  1  0
 25 50  1  0
 27 51  1  0
 29 52  1  0
M  END
>  <energy_abs>  (209) 
60.84441877015965

>  <SMILES>  (209) 
COCCOc1cc2c(cc1OCCOC)ncnc2Nc3cccc(c3)C#C

>  <cluster_no>  (209) 
209

>  <fda_drugs_id>  (209) 
AAKJLRGGTJKAMG-UHFFFAOYSA-N

>  <initial_conformation_id>  (209) 
89

>  <minimize_method>  (209) 
MMFF

$$$$

     RDKit          3D

 52 54  0  0  0  0  0  0  0  0999 V2000
   -3.9712   -3.5327    1.2011 C   0  0  0  0  0  0  0  0  0  0  0  0
   -3.4975   -2.4493    0.4159 O   0  0  0  0  0  0  0  0  0  0  0  0
   -2.1341   -2.5831    0.0027 C   0  0  0  0  0  0  0  0  0  0  0  0
   -1.1102   -2.5764    1.1501 C   0  0  0  0  0  0  0  0  0  0  0  0
   -1.2165   -1.4365    2.0143 O   0  0  0  0  0  0  0  0  0  0  0  0
   -0.8863   -0.2420    1.4296 C   0  0  0  0  0  0  0  0  0  0  0  0
    0.3793   -0.0216    0.8894 C   0  0  0  0  0  0  0  0  0  0  0  0
    0.7088    1.2306    0.3161 C   0  0  0  0  0  0  0  0  0  0  0  0
   -0.2511    2.2519    0.3025 C   0  0  0  0  0  0  0  0  0  0  0  0
   -1.4990    2.0177    0.8711 C   0  0  0  0  0  0  0  0  0  0  0  0
   -1.8333    0.7869    1.4412 C   0  0  0  0  0  0  0  0  0  0  0  0
   -3.0299    0.4958    2.0385 O   0  0  0  0  0  0  0  0  0  0  0  0
   -4.1762    1.2768    1.7065 C   0  0  0  0  0  0  0  0  0  0  0  0
   -4.7466    0.9027    0.3357 C   0  0  0  0  0  0  0  0  0  0  0  0
   -5.8715    1.7117   -0.0162 O   0  0  0  0  0  0  0  0  0  0  0  0
   -7.0799    1.2714    0.5886 C   0  0  0  0  0  0  0  0  0  0  0  0
   -0.0154    3.4529   -0.2312 N   0  0  0  0  0  0  0  0  0  0  0  0
    1.1914    3.6466   -0.7718 C   0  0  0  0  0  0  0  0  0  0  0  0
    2.1851    2.7566   -0.8199 N   0  0  0  0  0  0  0  0  0  0  0  0
    1.9510    1.5525   -0.2687 C   0  0  0  0  0  0  0  0  0  0  0  0
    2.9838    0.5749   -0.2638 N   0  0  0  0  0  0  0  0  0  0  0  0
    4.1765    0.5507   -1.0229 C   0  0  0  0  0  0  0  0  0  0  0  0
    4.2827    1.1473   -2.2861 C   0  0  0  0  0  0  0  0  0  0  0  0
    5.4544    1.0409   -3.0412 C   0  0  0  0  0  0  0  0  0  0  0  0
    6.5341    0.3086   -2.5536 C   0  0  0  0  0  0  0  0  0  0  0  0
    6.4363   -0.3258   -1.3158 C   0  0  0  0  0  0  0  0  0  0  0  0
    5.2611   -0.2146   -0.5634 C   0  0  0  0  0  0  0  0  0  0  0  0
    7.5345   -1.0971   -0.8179 C   0  0  0  0  0  0  0  0  0  0  0  0
    8.4581   -1.7428   -0.4017 C   0  0  0  0  0  0  0  0  0  0  0  0
   -5.0526   -3.4205    1.3183 H   0  0  0  0  0  0  0  0  0  0  0  0
   -3.7742   -4.4885    0.7063 H   0  0  0  0  0  0  0  0  0  0  0  0
   -3.5211   -3.5181    2.1968 H   0  0  0  0  0  0  0  0  0  0  0  0
   -1.9375   -1.7445   -0.6749 H   0  0  0  0  0  0  0  0  0  0  0  0
   -2.0254   -3.5008   -0.5891 H   0  0  0  0  0  0  0  0  0  0  0  0
   -0.0929   -2.6834    0.7563 H   0  0  0  0  0  0  0  0  0  0  0  0
   -1.2757   -3.4490    1.7905 H   0  0  0  0  0  0  0  0  0  0  0  0
    1.1172   -0.8169    0.9173 H   0  0  0  0  0  0  0  0  0  0  0  0
   -2.2037    2.8431    0.8611 H   0  0  0  0  0  0  0  0  0  0  0  0
   -4.9252    1.0525    2.4734 H   0  0  0  0  0  0  0  0  0  0  0  0
   -3.9992    2.3541    1.8051 H   0  0  0  0  0  0  0  0  0  0  0  0
   -3.9885    1.0645   -0.4387 H   0  0  0  0  0  0  0  0  0  0  0  0
   -5.0024   -0.1613    0.2907 H   0  0  0  0  0  0  0  0  0  0  0  0
   -7.0274    1.3572    1.6781 H   0  0  0  0  0  0  0  0  0  0  0  0
   -7.3024    0.2406    0.2993 H   0  0  0  0  0  0  0  0  0  0  0  0
   -7.8920    1.9157    0.2369 H   0  0  0  0  0  0  0  0  0  0  0  0
    1.3826    4.6199   -1.2110 H   0  0  0  0  0  0  0  0  0  0  0  0
    3.1463    0.2771    0.6933 H   0  0  0  0  0  0  0  0  0  0  0  0
    3.4474    1.7024   -2.7053 H   0  0  0  0  0  0  0  0  0  0  0  0
    5.5170    1.5252   -4.0126 H   0  0  0  0  0  0  0  0  0  0  0  0
    7.4411    0.2274   -3.1468 H   0  0  0  0  0  0  0  0  0  0  0  0
    5.1979   -0.7296    0.3923 H   0  0  0  0  0  0  0  0  0  0  0  0
    9.2792   -2.3146   -0.0354 H   0  0  0  0  0  0  0  0  0  0  0  0
  1  2  1  0
  2  3  1  0
  3  4  1  0
  4  5  1  0
  5  6  1  0
  6  7  2  0
  7  8  1  0
  8  9  2  0
  9 10  1  0
 10 11  2  0
 11 12  1  0
 12 13  1  0
 13 14  1  0
 14 15  1  0
 15 16  1  0
  9 17  1  0
 17 18  2  0
 18 19  1  0
 19 20  2  0
 20 21  1  0
 21 22  1  0
 22 23  2  0
 23 24  1  0
 24 25  2  0
 25 26  1  0
 26 27  2  0
 26 28  1  0
 28 29  3  0
 11  6  1  0
 20  8  1  0
 27 22  1  0
  1 30  1  0
  1 31  1  0
  1 32  1  0
  3 33  1  0
  3 34  1  0
  4 35  1  0
  4 36  1  0
  7 37  1  0
 10 38  1  0
 13 39  1  0
 13 40  1  0
 14 41  1  0
 14 42  1  0
 16 43  1  0
 16 44  1  0
 16 45  1  0
 18 46  1  0
 21 47  1  0
 23 48  1  0
 24 49  1  0
 25 50  1  0
 27 51  1  0
 29 52  1  0
M  END
>  <energy_abs>  (210) 
64.31204839598085

>  <SMILES>  (210) 
COCCOc1cc2c(cc1OCCOC)ncnc2Nc3cccc(c3)C#C

>  <cluster_no>  (210) 
210

>  <fda_drugs_id>  (210) 
AAKJLRGGTJKAMG-UHFFFAOYSA-N

>  <initial_conformation_id>  (210) 
88

>  <minimize_method>  (210) 
MMFF

$$$$

     RDKit          3D

 52 54  0  0  0  0  0  0  0  0999 V2000
   -2.7107   -3.5065    2.9369 C   0  0  0  0  0  0  0  0  0  0  0  0
   -1.8184   -4.3890    2.2669 O   0  0  0  0  0  0  0  0  0  0  0  0
   -1.6933   -4.1151    0.8664 C   0  0  0  0  0  0  0  0  0  0  0  0
   -0.9077   -2.8331    0.5754 C   0  0  0  0  0  0  0  0  0  0  0  0
   -1.7935   -1.7154    0.6761 O   0  0  0  0  0  0  0  0  0  0  0  0
   -1.2647   -0.4564    0.5612 C   0  0  0  0  0  0  0  0  0  0  0  0
    0.0567   -0.1802    0.2082 C   0  0  0  0  0  0  0  0  0  0  0  0
    0.5207    1.1562    0.1021 C   0  0  0  0  0  0  0  0  0  0  0  0
   -0.3696    2.2113    0.3328 C   0  0  0  0  0  0  0  0  0  0  0  0
   -1.6822    1.9219    0.6850 C   0  0  0  0  0  0  0  0  0  0  0  0
   -2.1456    0.6082    0.8084 C   0  0  0  0  0  0  0  0  0  0  0  0
   -3.4262    0.2544    1.1498 O   0  0  0  0  0  0  0  0  0  0  0  0
   -4.3709    1.2695    1.4824 C   0  0  0  0  0  0  0  0  0  0  0  0
   -5.0880    1.7906    0.2398 C   0  0  0  0  0  0  0  0  0  0  0  0
   -6.0203    2.8007    0.6242 O   0  0  0  0  0  0  0  0  0  0  0  0
   -6.7237    3.3163   -0.4988 C   0  0  0  0  0  0  0  0  0  0  0  0
   -0.0123    3.4932    0.2253 N   0  0  0  0  0  0  0  0  0  0  0  0
    1.2544    3.7385   -0.1244 C   0  0  0  0  0  0  0  0  0  0  0  0
    2.1958    2.8237   -0.3646 N   0  0  0  0  0  0  0  0  0  0  0  0
    1.8359    1.5339   -0.2413 C   0  0  0  0  0  0  0  0  0  0  0  0
    2.8099    0.5161   -0.4373 N   0  0  0  0  0  0  0  0  0  0  0  0
    4.0854    0.6255   -1.0381 C   0  0  0  0  0  0  0  0  0  0  0  0
    4.3695    1.5539   -2.0470 C   0  0  0  0  0  0  0  0  0  0  0  0
    5.6213    1.5855   -2.6691 C   0  0  0  0  0  0  0  0  0  0  0  0
    6.6037    0.6664   -2.3080 C   0  0  0  0  0  0  0  0  0  0  0  0
    6.3288   -0.2910   -1.3331 C   0  0  0  0  0  0  0  0  0  0  0  0
    5.0742   -0.3175   -0.7132 C   0  0  0  0  0  0  0  0  0  0  0  0
    7.3260   -1.2511   -0.9706 C   0  0  0  0  0  0  0  0  0  0  0  0
    8.1635   -2.0560   -0.6660 C   0  0  0  0  0  0  0  0  0  0  0  0
   -2.2578   -2.5191    3.0570 H   0  0  0  0  0  0  0  0  0  0  0  0
   -3.6648   -3.4312    2.4067 H   0  0  0  0  0  0  0  0  0  0  0  0
   -2.9002   -3.9115    3.9348 H   0  0  0  0  0  0  0  0  0  0  0  0
   -2.6871   -4.0977    0.4044 H   0  0  0  0  0  0  0  0  0  0  0  0
   -1.1421   -4.9630    0.4468 H   0  0  0  0  0  0  0  0  0  0  0  0
   -0.5219   -2.8839   -0.4490 H   0  0  0  0  0  0  0  0  0  0  0  0
   -0.0867   -2.7343    1.2949 H   0  0  0  0  0  0  0  0  0  0  0  0
    0.7459   -0.9877   -0.0152 H   0  0  0  0  0  0  0  0  0  0  0  0
   -2.3375    2.7708    0.8538 H   0  0  0  0  0  0  0  0  0  0  0  0
   -3.9375    2.0728    2.0898 H   0  0  0  0  0  0  0  0  0  0  0  0
   -5.1165    0.8037    2.1387 H   0  0  0  0  0  0  0  0  0  0  0  0
   -5.6119    0.9649   -0.2568 H   0  0  0  0  0  0  0  0  0  0  0  0
   -4.3700    2.2043   -0.4769 H   0  0  0  0  0  0  0  0  0  0  0  0
   -7.2938    2.5225   -0.9909 H   0  0  0  0  0  0  0  0  0  0  0  0
   -6.0287    3.7770   -1.2074 H   0  0  0  0  0  0  0  0  0  0  0  0
   -7.4213    4.0808   -0.1467 H   0  0  0  0  0  0  0  0  0  0  0  0
    1.5456    4.7790   -0.2191 H   0  0  0  0  0  0  0  0  0  0  0  0
    2.8463   -0.0596    0.3981 H   0  0  0  0  0  0  0  0  0  0  0  0
    3.6145    2.2668   -2.3677 H   0  0  0  0  0  0  0  0  0  0  0  0
    5.8227    2.3246   -3.4399 H   0  0  0  0  0  0  0  0  0  0  0  0
    7.5743    0.6956   -2.7966 H   0  0  0  0  0  0  0  0  0  0  0  0
    4.8733   -1.0813    0.0339 H   0  0  0  0  0  0  0  0  0  0  0  0
    8.9080   -2.7686   -0.3967 H   0  0  0  0  0  0  0  0  0  0  0  0
  1  2  1  0
  2  3  1  0
  3  4  1  0
  4  5  1  0
  5  6  1  0
  6  7  2  0
  7  8  1  0
  8  9  2  0
  9 10  1  0
 10 11  2  0
 11 12  1  0
 12 13  1  0
 13 14  1  0
 14 15  1  0
 15 16  1  0
  9 17  1  0
 17 18  2  0
 18 19  1  0
 19 20  2  0
 20 21  1  0
 21 22  1  0
 22 23  2  0
 23 24  1  0
 24 25  2  0
 25 26  1  0
 26 27  2  0
 26 28  1  0
 28 29  3  0
 11  6  1  0
 20  8  1  0
 27 22  1  0
  1 30  1  0
  1 31  1  0
  1 32  1  0
  3 33  1  0
  3 34  1  0
  4 35  1  0
  4 36  1  0
  7 37  1  0
 10 38  1  0
 13 39  1  0
 13 40  1  0
 14 41  1  0
 14 42  1  0
 16 43  1  0
 16 44  1  0
 16 45  1  0
 18 46  1  0
 21 47  1  0
 23 48  1  0
 24 49  1  0
 25 50  1  0
 27 51  1  0
 29 52  1  0
M  END
>  <energy_abs>  (211) 
58.34989637573555

>  <SMILES>  (211) 
COCCOc1cc2c(cc1OCCOC)ncnc2Nc3cccc(c3)C#C

>  <cluster_no>  (211) 
211

>  <fda_drugs_id>  (211) 
AAKJLRGGTJKAMG-UHFFFAOYSA-N

>  <initial_conformation_id>  (211) 
87

>  <minimize_method>  (211) 
MMFF

$$$$

     RDKit          3D

 52 54  0  0  0  0  0  0  0  0999 V2000
    0.1240   -4.9989    0.5049 C   0  0  0  0  0  0  0  0  0  0  0  0
   -0.4270   -3.6887    0.4097 O   0  0  0  0  0  0  0  0  0  0  0  0
   -1.7348   -3.6333    0.9899 C   0  0  0  0  0  0  0  0  0  0  0  0
   -2.2877   -2.2133    0.8610 C   0  0  0  0  0  0  0  0  0  0  0  0
   -1.5939   -1.3616    1.7885 O   0  0  0  0  0  0  0  0  0  0  0  0
   -1.2845   -0.1624    1.2049 C   0  0  0  0  0  0  0  0  0  0  0  0
    0.0188    0.0047    0.7432 C   0  0  0  0  0  0  0  0  0  0  0  0
    0.4190    1.2297    0.1624 C   0  0  0  0  0  0  0  0  0  0  0  0
   -0.5159    2.2697    0.0559 C   0  0  0  0  0  0  0  0  0  0  0  0
   -1.8080    2.0791    0.5413 C   0  0  0  0  0  0  0  0  0  0  0  0
   -2.2123    0.8783    1.1291 C   0  0  0  0  0  0  0  0  0  0  0  0
   -3.4614    0.6132    1.6205 O   0  0  0  0  0  0  0  0  0  0  0  0
   -4.3705    1.6986    1.8053 C   0  0  0  0  0  0  0  0  0  0  0  0
   -5.2556    1.8911    0.5765 C   0  0  0  0  0  0  0  0  0  0  0  0
   -6.1590    2.9715    0.8117 O   0  0  0  0  0  0  0  0  0  0  0  0
   -7.0150    3.1864   -0.3023 C   0  0  0  0  0  0  0  0  0  0  0  0
   -0.2199    3.4477   -0.4984 N   0  0  0  0  0  0  0  0  0  0  0  0
    1.0267    3.6014   -0.9567 C   0  0  0  0  0  0  0  0  0  0  0  0
    2.0028    2.6929   -0.9075 N   0  0  0  0  0  0  0  0  0  0  0  0
    1.7055    1.5070   -0.3444 C   0  0  0  0  0  0  0  0  0  0  0  0
    2.7084    0.5040   -0.2528 N   0  0  0  0  0  0  0  0  0  0  0  0
    3.9644    0.4381   -0.8974 C   0  0  0  0  0  0  0  0  0  0  0  0
    4.2177    1.0435   -2.1342 C   0  0  0  0  0  0  0  0  0  0  0  0
    5.4525    0.8971   -2.7740 C   0  0  0  0  0  0  0  0  0  0  0  0
    6.4496    0.1175   -2.1950 C   0  0  0  0  0  0  0  0  0  0  0  0
    6.2066   -0.5238   -0.9818 C   0  0  0  0  0  0  0  0  0  0  0  0
    4.9682   -0.3734   -0.3460 C   0  0  0  0  0  0  0  0  0  0  0  0
    7.2215   -1.3410   -0.3903 C   0  0  0  0  0  0  0  0  0  0  0  0
    8.0785   -2.0208    0.1056 C   0  0  0  0  0  0  0  0  0  0  0  0
    1.1366   -4.9761    0.0967 H   0  0  0  0  0  0  0  0  0  0  0  0
   -0.4749   -5.7042   -0.0756 H   0  0  0  0  0  0  0  0  0  0  0  0
    0.1749   -5.3224    1.5497 H   0  0  0  0  0  0  0  0  0  0  0  0
   -1.6712   -3.9201    2.0444 H   0  0  0  0  0  0  0  0  0  0  0  0
   -2.3862   -4.3360    0.4587 H   0  0  0  0  0  0  0  0  0  0  0  0
   -2.1921   -1.8711   -0.1769 H   0  0  0  0  0  0  0  0  0  0  0  0
   -3.3505   -2.2080    1.1316 H   0  0  0  0  0  0  0  0  0  0  0  0
    0.7071   -0.8336    0.8212 H   0  0  0  0  0  0  0  0  0  0  0  0
   -2.4956    2.9136    0.4356 H   0  0  0  0  0  0  0  0  0  0  0  0
   -5.0134    1.4337    2.6543 H   0  0  0  0  0  0  0  0  0  0  0  0
   -3.8735    2.6262    2.1165 H   0  0  0  0  0  0  0  0  0  0  0  0
   -5.8171    0.9689    0.3753 H   0  0  0  0  0  0  0  0  0  0  0  0
   -4.6453    2.1051   -0.3093 H   0  0  0  0  0  0  0  0  0  0  0  0
   -6.4294    3.4572   -1.1866 H   0  0  0  0  0  0  0  0  0  0  0  0
   -7.6157    2.2936   -0.5048 H   0  0  0  0  0  0  0  0  0  0  0  0
   -7.6894    4.0125   -0.0628 H   0  0  0  0  0  0  0  0  0  0  0  0
    1.2692    4.5567   -1.4108 H   0  0  0  0  0  0  0  0  0  0  0  0
    2.7598    0.1735    0.7044 H   0  0  0  0  0  0  0  0  0  0  0  0
    3.4503    1.6354   -2.6243 H   0  0  0  0  0  0  0  0  0  0  0  0
    5.6281    1.3871   -3.7278 H   0  0  0  0  0  0  0  0  0  0  0  0
    7.4065    0.0067   -2.6988 H   0  0  0  0  0  0  0  0  0  0  0  0
    4.7898   -0.8941    0.5911 H   0  0  0  0  0  0  0  0  0  0  0  0
    8.8423   -2.6215    0.5446 H   0  0  0  0  0  0  0  0  0  0  0  0
  1  2  1  0
  2  3  1  0
  3  4  1  0
  4  5  1  0
  5  6  1  0
  6  7  2  0
  7  8  1  0
  8  9  2  0
  9 10  1  0
 10 11  2  0
 11 12  1  0
 12 13  1  0
 13 14  1  0
 14 15  1  0
 15 16  1  0
  9 17  1  0
 17 18  2  0
 18 19  1  0
 19 20  2  0
 20 21  1  0
 21 22  1  0
 22 23  2  0
 23 24  1  0
 24 25  2  0
 25 26  1  0
 26 27  2  0
 26 28  1  0
 28 29  3  0
 11  6  1  0
 20  8  1  0
 27 22  1  0
  1 30  1  0
  1 31  1  0
  1 32  1  0
  3 33  1  0
  3 34  1  0
  4 35  1  0
  4 36  1  0
  7 37  1  0
 10 38  1  0
 13 39  1  0
 13 40  1  0
 14 41  1  0
 14 42  1  0
 16 43  1  0
 16 44  1  0
 16 45  1  0
 18 46  1  0
 21 47  1  0
 23 48  1  0
 24 49  1  0
 25 50  1  0
 27 51  1  0
 29 52  1  0
M  END
>  <energy_abs>  (212) 
57.892630281471334

>  <SMILES>  (212) 
COCCOc1cc2c(cc1OCCOC)ncnc2Nc3cccc(c3)C#C

>  <cluster_no>  (212) 
212

>  <fda_drugs_id>  (212) 
AAKJLRGGTJKAMG-UHFFFAOYSA-N

>  <initial_conformation_id>  (212) 
86

>  <minimize_method>  (212) 
MMFF

$$$$

     RDKit          3D

 52 54  0  0  0  0  0  0  0  0999 V2000
   -2.9103   -5.4885    2.7090 C   0  0  0  0  0  0  0  0  0  0  0  0
   -2.4136   -4.1570    2.6807 O   0  0  0  0  0  0  0  0  0  0  0  0
   -2.2703   -3.6818    1.3422 C   0  0  0  0  0  0  0  0  0  0  0  0
   -1.7575   -2.2461    1.3657 C   0  0  0  0  0  0  0  0  0  0  0  0
   -1.5805   -1.8038    0.0142 O   0  0  0  0  0  0  0  0  0  0  0  0
   -1.2237   -0.4803   -0.0138 C   0  0  0  0  0  0  0  0  0  0  0  0
    0.1209   -0.1808   -0.2174 C   0  0  0  0  0  0  0  0  0  0  0  0
    0.5517    1.1642   -0.2873 C   0  0  0  0  0  0  0  0  0  0  0  0
   -0.3971    2.1908   -0.1778 C   0  0  0  0  0  0  0  0  0  0  0  0
   -1.7390    1.8625   -0.0006 C   0  0  0  0  0  0  0  0  0  0  0  0
   -2.1768    0.5378    0.0680 C   0  0  0  0  0  0  0  0  0  0  0  0
   -3.4760    0.1404    0.2298 O   0  0  0  0  0  0  0  0  0  0  0  0
   -4.5162    1.0918    0.0072 C   0  0  0  0  0  0  0  0  0  0  0  0
   -4.9545    1.7394    1.3176 C   0  0  0  0  0  0  0  0  0  0  0  0
   -5.9801    2.6945    1.0491 O   0  0  0  0  0  0  0  0  0  0  0  0
   -6.4244    3.3340    2.2390 C   0  0  0  0  0  0  0  0  0  0  0  0
   -0.0682    3.4827   -0.2404 N   0  0  0  0  0  0  0  0  0  0  0  0
    1.2241    3.7663   -0.4341 C   0  0  0  0  0  0  0  0  0  0  0  0
    2.2160    2.8818   -0.5569 N   0  0  0  0  0  0  0  0  0  0  0  0
    1.8861    1.5806   -0.4732 C   0  0  0  0  0  0  0  0  0  0  0  0
    2.9056    0.5940   -0.5599 N   0  0  0  0  0  0  0  0  0  0  0  0
    4.2407    0.7383   -1.0010 C   0  0  0  0  0  0  0  0  0  0  0  0
    4.6278    1.6970   -1.9453 C   0  0  0  0  0  0  0  0  0  0  0  0
    5.9440    1.7625   -2.4122 C   0  0  0  0  0  0  0  0  0  0  0  0
    6.8924    0.8489   -1.9578 C   0  0  0  0  0  0  0  0  0  0  0  0
    6.5200   -0.1369   -1.0457 C   0  0  0  0  0  0  0  0  0  0  0  0
    5.2007   -0.1980   -0.5818 C   0  0  0  0  0  0  0  0  0  0  0  0
    7.4839   -1.0904   -0.5877 C   0  0  0  0  0  0  0  0  0  0  0  0
    8.2931   -1.8890   -0.2002 C   0  0  0  0  0  0  0  0  0  0  0  0
   -2.2204   -6.1662    2.1965 H   0  0  0  0  0  0  0  0  0  0  0  0
   -2.9969   -5.8017    3.7530 H   0  0  0  0  0  0  0  0  0  0  0  0
   -3.9009   -5.5378    2.2463 H   0  0  0  0  0  0  0  0  0  0  0  0
   -3.2351   -3.7223    0.8229 H   0  0  0  0  0  0  0  0  0  0  0  0
   -1.5670   -4.3190    0.7924 H   0  0  0  0  0  0  0  0  0  0  0  0
   -2.4727   -1.6173    1.9112 H   0  0  0  0  0  0  0  0  0  0  0  0
   -0.8007   -2.2077    1.9029 H   0  0  0  0  0  0  0  0  0  0  0  0
    0.8256   -0.9997   -0.3355 H   0  0  0  0  0  0  0  0  0  0  0  0
   -2.4362    2.6903    0.0844 H   0  0  0  0  0  0  0  0  0  0  0  0
   -4.2668    1.8304   -0.7644 H   0  0  0  0  0  0  0  0  0  0  0  0
   -5.3687    0.5387   -0.4064 H   0  0  0  0  0  0  0  0  0  0  0  0
   -4.1068    2.2322    1.8064 H   0  0  0  0  0  0  0  0  0  0  0  0
   -5.3289    0.9691    2.0020 H   0  0  0  0  0  0  0  0  0  0  0  0
   -7.2057    4.0508    1.9729 H   0  0  0  0  0  0  0  0  0  0  0  0
   -6.8443    2.6002    2.9340 H   0  0  0  0  0  0  0  0  0  0  0  0
   -5.6004    3.8754    2.7142 H   0  0  0  0  0  0  0  0  0  0  0  0
    1.4927    4.8154   -0.4964 H   0  0  0  0  0  0  0  0  0  0  0  0
    2.8456   -0.0134    0.2504 H   0  0  0  0  0  0  0  0  0  0  0  0
    3.9041    2.4071   -2.3376 H   0  0  0  0  0  0  0  0  0  0  0  0
    6.2227    2.5246   -3.1348 H   0  0  0  0  0  0  0  0  0  0  0  0
    7.9135    0.9045   -2.3262 H   0  0  0  0  0  0  0  0  0  0  0  0
    4.9252   -0.9836    0.1168 H   0  0  0  0  0  0  0  0  0  0  0  0
    9.0126   -2.5953    0.1432 H   0  0  0  0  0  0  0  0  0  0  0  0
  1  2  1  0
  2  3  1  0
  3  4  1  0
  4  5  1  0
  5  6  1  0
  6  7  2  0
  7  8  1  0
  8  9  2  0
  9 10  1  0
 10 11  2  0
 11 12  1  0
 12 13  1  0
 13 14  1  0
 14 15  1  0
 15 16  1  0
  9 17  1  0
 17 18  2  0
 18 19  1  0
 19 20  2  0
 20 21  1  0
 21 22  1  0
 22 23  2  0
 23 24  1  0
 24 25  2  0
 25 26  1  0
 26 27  2  0
 26 28  1  0
 28 29  3  0
 11  6  1  0
 20  8  1  0
 27 22  1  0
  1 30  1  0
  1 31  1  0
  1 32  1  0
  3 33  1  0
  3 34  1  0
  4 35  1  0
  4 36  1  0
  7 37  1  0
 10 38  1  0
 13 39  1  0
 13 40  1  0
 14 41  1  0
 14 42  1  0
 16 43  1  0
 16 44  1  0
 16 45  1  0
 18 46  1  0
 21 47  1  0
 23 48  1  0
 24 49  1  0
 25 50  1  0
 27 51  1  0
 29 52  1  0
M  END
>  <energy_abs>  (213) 
56.785688207088775

>  <SMILES>  (213) 
COCCOc1cc2c(cc1OCCOC)ncnc2Nc3cccc(c3)C#C

>  <cluster_no>  (213) 
213

>  <fda_drugs_id>  (213) 
AAKJLRGGTJKAMG-UHFFFAOYSA-N

>  <initial_conformation_id>  (213) 
85

>  <minimize_method>  (213) 
MMFF

$$$$

     RDKit          3D

 52 54  0  0  0  0  0  0  0  0999 V2000
   -1.3820   -5.4595    1.0487 C   0  0  0  0  0  0  0  0  0  0  0  0
   -0.7885   -4.4394    0.2556 O   0  0  0  0  0  0  0  0  0  0  0  0
   -1.6032   -3.2721    0.1444 C   0  0  0  0  0  0  0  0  0  0  0  0
   -1.5380   -2.3983    1.3980 C   0  0  0  0  0  0  0  0  0  0  0  0
   -2.1944   -1.1495    1.1911 O   0  0  0  0  0  0  0  0  0  0  0  0
   -1.4833   -0.0926    0.6844 C   0  0  0  0  0  0  0  0  0  0  0  0
   -0.1686   -0.1607    0.2208 C   0  0  0  0  0  0  0  0  0  0  0  0
    0.4867    0.9847   -0.3018 C   0  0  0  0  0  0  0  0  0  0  0  0
   -0.1929    2.2077   -0.3358 C   0  0  0  0  0  0  0  0  0  0  0  0
   -1.5025    2.2628    0.1237 C   0  0  0  0  0  0  0  0  0  0  0  0
   -2.1606    1.1355    0.6279 C   0  0  0  0  0  0  0  0  0  0  0  0
   -3.4532    1.1306    1.0897 O   0  0  0  0  0  0  0  0  0  0  0  0
   -4.1741    2.3608    1.0697 C   0  0  0  0  0  0  0  0  0  0  0  0
   -5.5685    2.1122    1.6363 C   0  0  0  0  0  0  0  0  0  0  0  0
   -6.3107    3.3313    1.6216 O   0  0  0  0  0  0  0  0  0  0  0  0
   -7.6200    3.1503    2.1451 C   0  0  0  0  0  0  0  0  0  0  0  0
    0.3647    3.3308   -0.7948 N   0  0  0  0  0  0  0  0  0  0  0  0
    1.6279    3.2443   -1.2233 C   0  0  0  0  0  0  0  0  0  0  0  0
    2.3768    2.1400   -1.2481 N   0  0  0  0  0  0  0  0  0  0  0  0
    1.8074    1.0082   -0.7979 C   0  0  0  0  0  0  0  0  0  0  0  0
    2.5459   -0.2064   -0.8354 N   0  0  0  0  0  0  0  0  0  0  0  0
    3.9349   -0.3878   -1.0288 C   0  0  0  0  0  0  0  0  0  0  0  0
    4.3965   -1.6254   -1.5062 C   0  0  0  0  0  0  0  0  0  0  0  0
    5.7627   -1.8799   -1.6535 C   0  0  0  0  0  0  0  0  0  0  0  0
    6.6932   -0.9060   -1.2995 C   0  0  0  0  0  0  0  0  0  0  0  0
    6.2563    0.3151   -0.7870 C   0  0  0  0  0  0  0  0  0  0  0  0
    4.8866    0.5643   -0.6417 C   0  0  0  0  0  0  0  0  0  0  0  0
    7.2101    1.3094   -0.3995 C   0  0  0  0  0  0  0  0  0  0  0  0
    8.0096    2.1442   -0.0741 C   0  0  0  0  0  0  0  0  0  0  0  0
   -1.4854   -5.1352    2.0876 H   0  0  0  0  0  0  0  0  0  0  0  0
   -0.7259   -6.3340    1.0262 H   0  0  0  0  0  0  0  0  0  0  0  0
   -2.3565   -5.7464    0.6422 H   0  0  0  0  0  0  0  0  0  0  0  0
   -2.6397   -3.5403   -0.0945 H   0  0  0  0  0  0  0  0  0  0  0  0
   -1.2351   -2.7114   -0.7210 H   0  0  0  0  0  0  0  0  0  0  0  0
   -0.5179   -2.2852    1.7834 H   0  0  0  0  0  0  0  0  0  0  0  0
   -2.0833   -2.9009    2.2052 H   0  0  0  0  0  0  0  0  0  0  0  0
    0.3828   -1.0941    0.2588 H   0  0  0  0  0  0  0  0  0  0  0  0
   -1.9978    3.2280    0.0749 H   0  0  0  0  0  0  0  0  0  0  0  0
   -4.2665    2.7392    0.0441 H   0  0  0  0  0  0  0  0  0  0  0  0
   -3.6686    3.1172    1.6828 H   0  0  0  0  0  0  0  0  0  0  0  0
   -5.4906    1.7320    2.6621 H   0  0  0  0  0  0  0  0  0  0  0  0
   -6.0836    1.3519    1.0366 H   0  0  0  0  0  0  0  0  0  0  0  0
   -8.1775    2.4278    1.5412 H   0  0  0  0  0  0  0  0  0  0  0  0
   -8.1407    4.1109    2.1095 H   0  0  0  0  0  0  0  0  0  0  0  0
   -7.5735    2.8162    3.1860 H   0  0  0  0  0  0  0  0  0  0  0  0
    2.0871    4.1566   -1.5882 H   0  0  0  0  0  0  0  0  0  0  0  0
    2.0102   -0.8996   -1.3479 H   0  0  0  0  0  0  0  0  0  0  0  0
    3.6920   -2.4091   -1.7739 H   0  0  0  0  0  0  0  0  0  0  0  0
    6.0992   -2.8393   -2.0376 H   0  0  0  0  0  0  0  0  0  0  0  0
    7.7553   -1.1075   -1.4135 H   0  0  0  0  0  0  0  0  0  0  0  0
    4.5674    1.5113   -0.2149 H   0  0  0  0  0  0  0  0  0  0  0  0
    8.7162    2.8866    0.2149 H   0  0  0  0  0  0  0  0  0  0  0  0
  1  2  1  0
  2  3  1  0
  3  4  1  0
  4  5  1  0
  5  6  1  0
  6  7  2  0
  7  8  1  0
  8  9  2  0
  9 10  1  0
 10 11  2  0
 11 12  1  0
 12 13  1  0
 13 14  1  0
 14 15  1  0
 15 16  1  0
  9 17  1  0
 17 18  2  0
 18 19  1  0
 19 20  2  0
 20 21  1  0
 21 22  1  0
 22 23  2  0
 23 24  1  0
 24 25  2  0
 25 26  1  0
 26 27  2  0
 26 28  1  0
 28 29  3  0
 11  6  1  0
 20  8  1  0
 27 22  1  0
  1 30  1  0
  1 31  1  0
  1 32  1  0
  3 33  1  0
  3 34  1  0
  4 35  1  0
  4 36  1  0
  7 37  1  0
 10 38  1  0
 13 39  1  0
 13 40  1  0
 14 41  1  0
 14 42  1  0
 16 43  1  0
 16 44  1  0
 16 45  1  0
 18 46  1  0
 21 47  1  0
 23 48  1  0
 24 49  1  0
 25 50  1  0
 27 51  1  0
 29 52  1  0
M  END
>  <energy_abs>  (214) 
58.187563278995185

>  <SMILES>  (214) 
COCCOc1cc2c(cc1OCCOC)ncnc2Nc3cccc(c3)C#C

>  <cluster_no>  (214) 
214

>  <fda_drugs_id>  (214) 
AAKJLRGGTJKAMG-UHFFFAOYSA-N

>  <initial_conformation_id>  (214) 
84

>  <minimize_method>  (214) 
MMFF

$$$$

     RDKit          3D

 52 54  0  0  0  0  0  0  0  0999 V2000
   -0.9694   -5.5890    2.0416 C   0  0  0  0  0  0  0  0  0  0  0  0
   -1.7279   -5.2413    0.8904 O   0  0  0  0  0  0  0  0  0  0  0  0
   -2.3845   -3.9797    1.0189 C   0  0  0  0  0  0  0  0  0  0  0  0
   -1.4634   -2.8196    0.6434 C   0  0  0  0  0  0  0  0  0  0  0  0
   -2.1975   -1.6030    0.7599 O   0  0  0  0  0  0  0  0  0  0  0  0
   -1.5331   -0.4251    0.5355 C   0  0  0  0  0  0  0  0  0  0  0  0
   -0.2320   -0.3307    0.0391 C   0  0  0  0  0  0  0  0  0  0  0  0
    0.3798    0.9314   -0.1741 C   0  0  0  0  0  0  0  0  0  0  0  0
   -0.3292    2.0977    0.1351 C   0  0  0  0  0  0  0  0  0  0  0  0
   -1.6253    1.9895    0.6229 C   0  0  0  0  0  0  0  0  0  0  0  0
   -2.2421    0.7510    0.8263 C   0  0  0  0  0  0  0  0  0  0  0  0
   -3.5181    0.5778    1.2987 O   0  0  0  0  0  0  0  0  0  0  0  0
   -4.2851    1.7161    1.6866 C   0  0  0  0  0  0  0  0  0  0  0  0
   -5.0323    2.3162    0.4950 C   0  0  0  0  0  0  0  0  0  0  0  0
   -5.8158    3.4486    0.8729 O   0  0  0  0  0  0  0  0  0  0  0  0
   -5.0630    4.6539    0.9146 C   0  0  0  0  0  0  0  0  0  0  0  0
    0.1861    3.3197   -0.0198 N   0  0  0  0  0  0  0  0  0  0  0  0
    1.4384    3.3896   -0.4828 C   0  0  0  0  0  0  0  0  0  0  0  0
    2.2123    2.3556   -0.8182 N   0  0  0  0  0  0  0  0  0  0  0  0
    1.6835    1.1276   -0.6755 C   0  0  0  0  0  0  0  0  0  0  0  0
    2.4465   -0.0087   -1.0618 N   0  0  0  0  0  0  0  0  0  0  0  0
    3.8346   -0.0841   -1.3222 C   0  0  0  0  0  0  0  0  0  0  0  0
    4.3156   -1.1117   -2.1498 C   0  0  0  0  0  0  0  0  0  0  0  0
    5.6842   -1.2698   -2.3846 C   0  0  0  0  0  0  0  0  0  0  0  0
    6.5979   -0.4155   -1.7722 C   0  0  0  0  0  0  0  0  0  0  0  0
    6.1425    0.5872   -0.9166 C   0  0  0  0  0  0  0  0  0  0  0  0
    4.7708    0.7409   -0.6853 C   0  0  0  0  0  0  0  0  0  0  0  0
    7.0797    1.4521   -0.2670 C   0  0  0  0  0  0  0  0  0  0  0  0
    7.8655    2.1781    0.2784 C   0  0  0  0  0  0  0  0  0  0  0  0
   -1.6165   -5.6540    2.9216 H   0  0  0  0  0  0  0  0  0  0  0  0
   -0.5188   -6.5704    1.8701 H   0  0  0  0  0  0  0  0  0  0  0  0
   -0.1672   -4.8669    2.2156 H   0  0  0  0  0  0  0  0  0  0  0  0
   -2.8007   -3.8503    2.0256 H   0  0  0  0  0  0  0  0  0  0  0  0
   -3.2415   -3.9865    0.3356 H   0  0  0  0  0  0  0  0  0  0  0  0
   -0.5945   -2.8047    1.3111 H   0  0  0  0  0  0  0  0  0  0  0  0
   -1.1149   -2.9637   -0.3866 H   0  0  0  0  0  0  0  0  0  0  0  0
    0.3386   -1.2266   -0.1815 H   0  0  0  0  0  0  0  0  0  0  0  0
   -2.1404    2.9196    0.8381 H   0  0  0  0  0  0  0  0  0  0  0  0
   -5.0290    1.3640    2.4120 H   0  0  0  0  0  0  0  0  0  0  0  0
   -3.6903    2.4483    2.2433 H   0  0  0  0  0  0  0  0  0  0  0  0
   -4.3589    2.5698   -0.3318 H   0  0  0  0  0  0  0  0  0  0  0  0
   -5.7204    1.5612    0.0975 H   0  0  0  0  0  0  0  0  0  0  0  0
   -5.7373    5.4688    1.1915 H   0  0  0  0  0  0  0  0  0  0  0  0
   -4.2680    4.5944    1.6626 H   0  0  0  0  0  0  0  0  0  0  0  0
   -4.6384    4.8744   -0.0695 H   0  0  0  0  0  0  0  0  0  0  0  0
    1.8652    4.3798   -0.6004 H   0  0  0  0  0  0  0  0  0  0  0  0
    1.9153   -0.5366   -1.7469 H   0  0  0  0  0  0  0  0  0  0  0  0
    3.6253   -1.8020   -2.6281 H   0  0  0  0  0  0  0  0  0  0  0  0
    6.0362   -2.0623   -3.0398 H   0  0  0  0  0  0  0  0  0  0  0  0
    7.6620   -0.5420   -1.9557 H   0  0  0  0  0  0  0  0  0  0  0  0
    4.4371    1.5110    0.0052 H   0  0  0  0  0  0  0  0  0  0  0  0
    8.5604    2.8234    0.7628 H   0  0  0  0  0  0  0  0  0  0  0  0
  1  2  1  0
  2  3  1  0
  3  4  1  0
  4  5  1  0
  5  6  1  0
  6  7  2  0
  7  8  1  0
  8  9  2  0
  9 10  1  0
 10 11  2  0
 11 12  1  0
 12 13  1  0
 13 14  1  0
 14 15  1  0
 15 16  1  0
  9 17  1  0
 17 18  2  0
 18 19  1  0
 19 20  2  0
 20 21  1  0
 21 22  1  0
 22 23  2  0
 23 24  1  0
 24 25  2  0
 25 26  1  0
 26 27  2  0
 26 28  1  0
 28 29  3  0
 11  6  1  0
 20  8  1  0
 27 22  1  0
  1 30  1  0
  1 31  1  0
  1 32  1  0
  3 33  1  0
  3 34  1  0
  4 35  1  0
  4 36  1  0
  7 37  1  0
 10 38  1  0
 13 39  1  0
 13 40  1  0
 14 41  1  0
 14 42  1  0
 16 43  1  0
 16 44  1  0
 16 45  1  0
 18 46  1  0
 21 47  1  0
 23 48  1  0
 24 49  1  0
 25 50  1  0
 27 51  1  0
 29 52  1  0
M  END
>  <energy_abs>  (215) 
60.44707675486943

>  <SMILES>  (215) 
COCCOc1cc2c(cc1OCCOC)ncnc2Nc3cccc(c3)C#C

>  <cluster_no>  (215) 
215

>  <fda_drugs_id>  (215) 
AAKJLRGGTJKAMG-UHFFFAOYSA-N

>  <initial_conformation_id>  (215) 
83

>  <minimize_method>  (215) 
MMFF

$$$$

     RDKit          3D

 52 54  0  0  0  0  0  0  0  0999 V2000
   -3.2748   -4.7058    1.1280 C   0  0  0  0  0  0  0  0  0  0  0  0
   -2.5989   -4.2004    2.2706 O   0  0  0  0  0  0  0  0  0  0  0  0
   -2.6402   -2.7783    2.3708 C   0  0  0  0  0  0  0  0  0  0  0  0
   -1.6813   -2.0936    1.3988 C   0  0  0  0  0  0  0  0  0  0  0  0
   -1.6302   -0.6850    1.6912 O   0  0  0  0  0  0  0  0  0  0  0  0
   -1.3907    0.0208    0.5425 C   0  0  0  0  0  0  0  0  0  0  0  0
   -0.0610    0.2420    0.1803 C   0  0  0  0  0  0  0  0  0  0  0  0
    0.2625    0.8678   -1.0491 C   0  0  0  0  0  0  0  0  0  0  0  0
   -0.7776    1.2950   -1.8868 C   0  0  0  0  0  0  0  0  0  0  0  0
   -2.0917    1.1116   -1.4768 C   0  0  0  0  0  0  0  0  0  0  0  0
   -2.4187    0.5083   -0.2616 C   0  0  0  0  0  0  0  0  0  0  0  0
   -3.7618    0.4307   -0.0083 O   0  0  0  0  0  0  0  0  0  0  0  0
   -4.1907    0.7052    1.3284 C   0  0  0  0  0  0  0  0  0  0  0  0
   -3.9470    2.1539    1.7619 C   0  0  0  0  0  0  0  0  0  0  0  0
   -4.3523    2.3621    3.1167 O   0  0  0  0  0  0  0  0  0  0  0  0
   -3.3299    2.0407    4.0470 C   0  0  0  0  0  0  0  0  0  0  0  0
   -0.5623    1.8752   -3.0669 N   0  0  0  0  0  0  0  0  0  0  0  0
    0.7127    2.0486   -3.4263 C   0  0  0  0  0  0  0  0  0  0  0  0
    1.7864    1.6973   -2.7157 N   0  0  0  0  0  0  0  0  0  0  0  0
    1.5715    1.1004   -1.5319 C   0  0  0  0  0  0  0  0  0  0  0  0
    2.6758    0.6993   -0.7289 N   0  0  0  0  0  0  0  0  0  0  0  0
    4.0602    0.9524   -0.8789 C   0  0  0  0  0  0  0  0  0  0  0  0
    4.5817    1.9761   -1.6716 C   0  0  0  0  0  0  0  0  0  0  0  0
    5.9574    2.2134   -1.7343 C   0  0  0  0  0  0  0  0  0  0  0  0
    6.8362    1.4546   -0.9638 C   0  0  0  0  0  0  0  0  0  0  0  0
    6.3349    0.4662   -0.1205 C   0  0  0  0  0  0  0  0  0  0  0  0
    4.9605    0.2236   -0.0791 C   0  0  0  0  0  0  0  0  0  0  0  0
    7.2238   -0.2914    0.7018 C   0  0  0  0  0  0  0  0  0  0  0  0
    7.9641   -0.9360    1.3918 C   0  0  0  0  0  0  0  0  0  0  0  0
   -4.3050   -4.3434    1.0867 H   0  0  0  0  0  0  0  0  0  0  0  0
   -3.2945   -5.7979    1.2048 H   0  0  0  0  0  0  0  0  0  0  0  0
   -2.7434   -4.4367    0.2141 H   0  0  0  0  0  0  0  0  0  0  0  0
   -3.6657   -2.4141    2.2333 H   0  0  0  0  0  0  0  0  0  0  0  0
   -2.3718   -2.5176    3.4012 H   0  0  0  0  0  0  0  0  0  0  0  0
   -2.0058   -2.2889    0.3686 H   0  0  0  0  0  0  0  0  0  0  0  0
   -0.6716   -2.5152    1.5052 H   0  0  0  0  0  0  0  0  0  0  0  0
    0.7219   -0.0882    0.8598 H   0  0  0  0  0  0  0  0  0  0  0  0
   -2.8938    1.4633   -2.1229 H   0  0  0  0  0  0  0  0  0  0  0  0
   -5.2751    0.5335    1.3417 H   0  0  0  0  0  0  0  0  0  0  0  0
   -3.8065   -0.0222    2.0460 H   0  0  0  0  0  0  0  0  0  0  0  0
   -4.5574    2.8125    1.1325 H   0  0  0  0  0  0  0  0  0  0  0  0
   -2.9090    2.4724    1.6159 H   0  0  0  0  0  0  0  0  0  0  0  0
   -3.0360    0.9947    3.9596 H   0  0  0  0  0  0  0  0  0  0  0  0
   -2.4657    2.6883    3.8995 H   0  0  0  0  0  0  0  0  0  0  0  0
   -3.7185    2.2066    5.0542 H   0  0  0  0  0  0  0  0  0  0  0  0
    0.8919    2.5191   -4.3864 H   0  0  0  0  0  0  0  0  0  0  0  0
    2.5261   -0.2520   -0.4072 H   0  0  0  0  0  0  0  0  0  0  0  0
    3.9278    2.6130   -2.2659 H   0  0  0  0  0  0  0  0  0  0  0  0
    6.3387    3.0039   -2.3826 H   0  0  0  0  0  0  0  0  0  0  0  0
    7.9047    1.6529   -1.0116 H   0  0  0  0  0  0  0  0  0  0  0  0
    4.5869   -0.5447    0.5975 H   0  0  0  0  0  0  0  0  0  0  0  0
    8.6234   -1.5087    2.0016 H   0  0  0  0  0  0  0  0  0  0  0  0
  1  2  1  0
  2  3  1  0
  3  4  1  0
  4  5  1  0
  5  6  1  0
  6  7  2  0
  7  8  1  0
  8  9  2  0
  9 10  1  0
 10 11  2  0
 11 12  1  0
 12 13  1  0
 13 14  1  0
 14 15  1  0
 15 16  1  0
  9 17  1  0
 17 18  2  0
 18 19  1  0
 19 20  2  0
 20 21  1  0
 21 22  1  0
 22 23  2  0
 23 24  1  0
 24 25  2  0
 25 26  1  0
 26 27  2  0
 26 28  1  0
 28 29  3  0
 11  6  1  0
 20  8  1  0
 27 22  1  0
  1 30  1  0
  1 31  1  0
  1 32  1  0
  3 33  1  0
  3 34  1  0
  4 35  1  0
  4 36  1  0
  7 37  1  0
 10 38  1  0
 13 39  1  0
 13 40  1  0
 14 41  1  0
 14 42  1  0
 16 43  1  0
 16 44  1  0
 16 45  1  0
 18 46  1  0
 21 47  1  0
 23 48  1  0
 24 49  1  0
 25 50  1  0
 27 51  1  0
 29 52  1  0
M  END
>  <energy_abs>  (216) 
61.99981230268359

>  <SMILES>  (216) 
COCCOc1cc2c(cc1OCCOC)ncnc2Nc3cccc(c3)C#C

>  <cluster_no>  (216) 
216

>  <fda_drugs_id>  (216) 
AAKJLRGGTJKAMG-UHFFFAOYSA-N

>  <initial_conformation_id>  (216) 
82

>  <minimize_method>  (216) 
MMFF

$$$$

     RDKit          3D

 52 54  0  0  0  0  0  0  0  0999 V2000
   -0.8288   -5.2466    2.7155 C   0  0  0  0  0  0  0  0  0  0  0  0
    0.0580   -4.2180    2.2872 O   0  0  0  0  0  0  0  0  0  0  0  0
   -0.4063   -2.9079    2.6259 C   0  0  0  0  0  0  0  0  0  0  0  0
   -1.3862   -2.3645    1.5854 C   0  0  0  0  0  0  0  0  0  0  0  0
   -1.7702   -1.0321    1.9374 O   0  0  0  0  0  0  0  0  0  0  0  0
   -1.4276   -0.0849    1.0096 C   0  0  0  0  0  0  0  0  0  0  0  0
   -0.1162    0.0735    0.5637 C   0  0  0  0  0  0  0  0  0  0  0  0
    0.2179    1.1018   -0.3549 C   0  0  0  0  0  0  0  0  0  0  0  0
   -0.7817    1.9797   -0.8001 C   0  0  0  0  0  0  0  0  0  0  0  0
   -2.0810    1.8096   -0.3382 C   0  0  0  0  0  0  0  0  0  0  0  0
   -2.4082    0.8094    0.5822 C   0  0  0  0  0  0  0  0  0  0  0  0
   -3.6942    0.6087    1.0080 O   0  0  0  0  0  0  0  0  0  0  0  0
   -4.3259    1.7737    1.5725 C   0  0  0  0  0  0  0  0  0  0  0  0
   -5.6670    2.0078    0.8734 C   0  0  0  0  0  0  0  0  0  0  0  0
   -5.4444    2.6673   -0.3792 O   0  0  0  0  0  0  0  0  0  0  0  0
   -6.6543    2.8271   -1.1104 C   0  0  0  0  0  0  0  0  0  0  0  0
   -0.5333    2.9796   -1.6481 N   0  0  0  0  0  0  0  0  0  0  0  0
    0.7320    3.1246   -2.0545 C   0  0  0  0  0  0  0  0  0  0  0  0
    1.7662    2.3560   -1.7074 N   0  0  0  0  0  0  0  0  0  0  0  0
    1.5099    1.3372   -0.8688 C   0  0  0  0  0  0  0  0  0  0  0  0
    2.5645    0.4551   -0.5025 N   0  0  0  0  0  0  0  0  0  0  0  0
    3.9557    0.6409   -0.6722 C   0  0  0  0  0  0  0  0  0  0  0  0
    4.5577    1.9049   -0.6237 C   0  0  0  0  0  0  0  0  0  0  0  0
    5.9441    2.0505   -0.7334 C   0  0  0  0  0  0  0  0  0  0  0  0
    6.7549    0.9248   -0.8719 C   0  0  0  0  0  0  0  0  0  0  0  0
    6.1794   -0.3467   -0.8837 C   0  0  0  0  0  0  0  0  0  0  0  0
    4.7908   -0.4857   -0.7716 C   0  0  0  0  0  0  0  0  0  0  0  0
    7.0086   -1.5092   -1.0067 C   0  0  0  0  0  0  0  0  0  0  0  0
    7.7044   -2.4821   -1.1043 C   0  0  0  0  0  0  0  0  0  0  0  0
   -0.9576   -5.2121    3.8010 H   0  0  0  0  0  0  0  0  0  0  0  0
   -1.8003   -5.1578    2.2182 H   0  0  0  0  0  0  0  0  0  0  0  0
   -0.3892   -6.2135    2.4495 H   0  0  0  0  0  0  0  0  0  0  0  0
    0.4737   -2.2558    2.6685 H   0  0  0  0  0  0  0  0  0  0  0  0
   -0.8431   -2.8866    3.6331 H   0  0  0  0  0  0  0  0  0  0  0  0
   -0.9715   -2.4550    0.5725 H   0  0  0  0  0  0  0  0  0  0  0  0
   -2.2999   -2.9708    1.5843 H   0  0  0  0  0  0  0  0  0  0  0  0
    0.6625   -0.5791    0.9492 H   0  0  0  0  0  0  0  0  0  0  0  0
   -2.8551    2.4736   -0.7165 H   0  0  0  0  0  0  0  0  0  0  0  0
   -3.6951    2.6699    1.5305 H   0  0  0  0  0  0  0  0  0  0  0  0
   -4.5069    1.5439    2.6296 H   0  0  0  0  0  0  0  0  0  0  0  0
   -6.3023    2.6498    1.4944 H   0  0  0  0  0  0  0  0  0  0  0  0
   -6.1727    1.0515    0.6950 H   0  0  0  0  0  0  0  0  0  0  0  0
   -7.3805    3.4117   -0.5336 H   0  0  0  0  0  0  0  0  0  0  0  0
   -6.4289    3.3642   -2.0388 H   0  0  0  0  0  0  0  0  0  0  0  0
   -7.0724    1.8503   -1.3665 H   0  0  0  0  0  0  0  0  0  0  0  0
    0.9389    3.9442   -2.7309 H   0  0  0  0  0  0  0  0  0  0  0  0
    2.2881   -0.4943   -0.7322 H   0  0  0  0  0  0  0  0  0  0  0  0
    3.9515    2.7959   -0.4914 H   0  0  0  0  0  0  0  0  0  0  0  0
    6.3862    3.0453   -0.7071 H   0  0  0  0  0  0  0  0  0  0  0  0
    7.8317    1.0450   -0.9574 H   0  0  0  0  0  0  0  0  0  0  0  0
    4.3610   -1.4849   -0.7697 H   0  0  0  0  0  0  0  0  0  0  0  0
    8.3222   -3.3442   -1.1898 H   0  0  0  0  0  0  0  0  0  0  0  0
  1  2  1  0
  2  3  1  0
  3  4  1  0
  4  5  1  0
  5  6  1  0
  6  7  2  0
  7  8  1  0
  8  9  2  0
  9 10  1  0
 10 11  2  0
 11 12  1  0
 12 13  1  0
 13 14  1  0
 14 15  1  0
 15 16  1  0
  9 17  1  0
 17 18  2  0
 18 19  1  0
 19 20  2  0
 20 21  1  0
 21 22  1  0
 22 23  2  0
 23 24  1  0
 24 25  2  0
 25 26  1  0
 26 27  2  0
 26 28  1  0
 28 29  3  0
 11  6  1  0
 20  8  1  0
 27 22  1  0
  1 30  1  0
  1 31  1  0
  1 32  1  0
  3 33  1  0
  3 34  1  0
  4 35  1  0
  4 36  1  0
  7 37  1  0
 10 38  1  0
 13 39  1  0
 13 40  1  0
 14 41  1  0
 14 42  1  0
 16 43  1  0
 16 44  1  0
 16 45  1  0
 18 46  1  0
 21 47  1  0
 23 48  1  0
 24 49  1  0
 25 50  1  0
 27 51  1  0
 29 52  1  0
M  END
>  <energy_abs>  (217) 
61.402103195222395

>  <SMILES>  (217) 
COCCOc1cc2c(cc1OCCOC)ncnc2Nc3cccc(c3)C#C

>  <cluster_no>  (217) 
217

>  <fda_drugs_id>  (217) 
AAKJLRGGTJKAMG-UHFFFAOYSA-N

>  <initial_conformation_id>  (217) 
81

>  <minimize_method>  (217) 
MMFF

$$$$

     RDKit          3D

 52 54  0  0  0  0  0  0  0  0999 V2000
   -2.3647   -4.4150    2.4431 C   0  0  0  0  0  0  0  0  0  0  0  0
   -2.8221   -3.2498    3.1161 O   0  0  0  0  0  0  0  0  0  0  0  0
   -1.7675   -2.4585    3.6715 C   0  0  0  0  0  0  0  0  0  0  0  0
   -0.9581   -1.6870    2.6231 C   0  0  0  0  0  0  0  0  0  0  0  0
   -1.8162   -0.7395    1.9816 O   0  0  0  0  0  0  0  0  0  0  0  0
   -1.3288   -0.1024    0.8745 C   0  0  0  0  0  0  0  0  0  0  0  0
    0.0302    0.1077    0.6376 C   0  0  0  0  0  0  0  0  0  0  0  0
    0.4833    0.7758   -0.5332 C   0  0  0  0  0  0  0  0  0  0  0  0
   -0.4488    1.1945   -1.4903 C   0  0  0  0  0  0  0  0  0  0  0  0
   -1.7963    0.9885   -1.2379 C   0  0  0  0  0  0  0  0  0  0  0  0
   -2.2469    0.3868   -0.0588 C   0  0  0  0  0  0  0  0  0  0  0  0
   -3.6083    0.2682    0.0345 O   0  0  0  0  0  0  0  0  0  0  0  0
   -4.1558    0.6399    1.3098 C   0  0  0  0  0  0  0  0  0  0  0  0
   -5.4881    1.3526    1.0751 C   0  0  0  0  0  0  0  0  0  0  0  0
   -5.2379    2.6873    0.6151 O   0  0  0  0  0  0  0  0  0  0  0  0
   -6.4419    3.3548    0.2640 C   0  0  0  0  0  0  0  0  0  0  0  0
   -0.0960    1.7969   -2.6298 N   0  0  0  0  0  0  0  0  0  0  0  0
    1.2107    2.0013   -2.8226 C   0  0  0  0  0  0  0  0  0  0  0  0
    2.1919    1.6695   -1.9796 N   0  0  0  0  0  0  0  0  0  0  0  0
    1.8316    1.0686   -0.8319 C   0  0  0  0  0  0  0  0  0  0  0  0
    2.8298    0.7412    0.1288 N   0  0  0  0  0  0  0  0  0  0  0  0
    4.2347    0.7592   -0.0237 C   0  0  0  0  0  0  0  0  0  0  0  0
    5.0369    0.9317    1.1182 C   0  0  0  0  0  0  0  0  0  0  0  0
    6.4303    0.9027    1.0346 C   0  0  0  0  0  0  0  0  0  0  0  0
    7.0469    0.6704   -0.1918 C   0  0  0  0  0  0  0  0  0  0  0  0
    6.2675    0.4569   -1.3305 C   0  0  0  0  0  0  0  0  0  0  0  0
    4.8715    0.4896   -1.2405 C   0  0  0  0  0  0  0  0  0  0  0  0
    6.8983    0.1935   -2.5883 C   0  0  0  0  0  0  0  0  0  0  0  0
    7.4325   -0.0308   -3.6395 C   0  0  0  0  0  0  0  0  0  0  0  0
   -1.8413   -4.1509    1.5207 H   0  0  0  0  0  0  0  0  0  0  0  0
   -1.7140   -5.0106    3.0919 H   0  0  0  0  0  0  0  0  0  0  0  0
   -3.2366   -5.0208    2.1777 H   0  0  0  0  0  0  0  0  0  0  0  0
   -2.2502   -1.7429    4.3460 H   0  0  0  0  0  0  0  0  0  0  0  0
   -1.1108   -3.0940    4.2763 H   0  0  0  0  0  0  0  0  0  0  0  0
   -0.1505   -1.1576    3.1404 H   0  0  0  0  0  0  0  0  0  0  0  0
   -0.5357   -2.3737    1.8817 H   0  0  0  0  0  0  0  0  0  0  0  0
    0.7670   -0.2397    1.3534 H   0  0  0  0  0  0  0  0  0  0  0  0
   -2.5272    1.3274   -1.9693 H   0  0  0  0  0  0  0  0  0  0  0  0
   -3.4837    1.3062    1.8649 H   0  0  0  0  0  0  0  0  0  0  0  0
   -4.3377   -0.2783    1.8810 H   0  0  0  0  0  0  0  0  0  0  0  0
   -6.0436    1.4113    2.0170 H   0  0  0  0  0  0  0  0  0  0  0  0
   -6.0835    0.8125    0.3306 H   0  0  0  0  0  0  0  0  0  0  0  0
   -6.1942    4.3781   -0.0302 H   0  0  0  0  0  0  0  0  0  0  0  0
   -7.1259    3.3919    1.1168 H   0  0  0  0  0  0  0  0  0  0  0  0
   -6.9167    2.8551   -0.5870 H   0  0  0  0  0  0  0  0  0  0  0  0
    1.5020    2.4854   -3.7485 H   0  0  0  0  0  0  0  0  0  0  0  0
    2.5564    1.1393    1.0197 H   0  0  0  0  0  0  0  0  0  0  0  0
    4.5816    1.1016    2.0904 H   0  0  0  0  0  0  0  0  0  0  0  0
    7.0316    1.0569    1.9272 H   0  0  0  0  0  0  0  0  0  0  0  0
    8.1313    0.6476   -0.2538 H   0  0  0  0  0  0  0  0  0  0  0  0
    4.2829    0.2965   -2.1337 H   0  0  0  0  0  0  0  0  0  0  0  0
    7.8858   -0.2142   -4.5865 H   0  0  0  0  0  0  0  0  0  0  0  0
  1  2  1  0
  2  3  1  0
  3  4  1  0
  4  5  1  0
  5  6  1  0
  6  7  2  0
  7  8  1  0
  8  9  2  0
  9 10  1  0
 10 11  2  0
 11 12  1  0
 12 13  1  0
 13 14  1  0
 14 15  1  0
 15 16  1  0
  9 17  1  0
 17 18  2  0
 18 19  1  0
 19 20  2  0
 20 21  1  0
 21 22  1  0
 22 23  2  0
 23 24  1  0
 24 25  2  0
 25 26  1  0
 26 27  2  0
 26 28  1  0
 28 29  3  0
 11  6  1  0
 20  8  1  0
 27 22  1  0
  1 30  1  0
  1 31  1  0
  1 32  1  0
  3 33  1  0
  3 34  1  0
  4 35  1  0
  4 36  1  0
  7 37  1  0
 10 38  1  0
 13 39  1  0
 13 40  1  0
 14 41  1  0
 14 42  1  0
 16 43  1  0
 16 44  1  0
 16 45  1  0
 18 46  1  0
 21 47  1  0
 23 48  1  0
 24 49  1  0
 25 50  1  0
 27 51  1  0
 29 52  1  0
M  END
>  <energy_abs>  (218) 
60.71800325631699

>  <SMILES>  (218) 
COCCOc1cc2c(cc1OCCOC)ncnc2Nc3cccc(c3)C#C

>  <cluster_no>  (218) 
218

>  <fda_drugs_id>  (218) 
AAKJLRGGTJKAMG-UHFFFAOYSA-N

>  <initial_conformation_id>  (218) 
80

>  <minimize_method>  (218) 
MMFF

$$$$

     RDKit          3D

 52 54  0  0  0  0  0  0  0  0999 V2000
    0.4068   -4.2834    3.0713 C   0  0  0  0  0  0  0  0  0  0  0  0
   -0.0489   -3.0093    2.6383 O   0  0  0  0  0  0  0  0  0  0  0  0
   -1.4688   -2.8795    2.7837 C   0  0  0  0  0  0  0  0  0  0  0  0
   -1.8978   -1.4852    2.3262 C   0  0  0  0  0  0  0  0  0  0  0  0
   -1.7914   -1.4227    0.8932 O   0  0  0  0  0  0  0  0  0  0  0  0
   -1.3966   -0.1753    0.4920 C   0  0  0  0  0  0  0  0  0  0  0  0
   -0.0586   -0.0161    0.1406 C   0  0  0  0  0  0  0  0  0  0  0  0
    0.4136    1.2296   -0.3330 C   0  0  0  0  0  0  0  0  0  0  0  0
   -0.4834    2.3029   -0.4395 C   0  0  0  0  0  0  0  0  0  0  0  0
   -1.8186    2.1125   -0.0887 C   0  0  0  0  0  0  0  0  0  0  0  0
   -2.2995    0.8811    0.3646 C   0  0  0  0  0  0  0  0  0  0  0  0
   -3.5973    0.6207    0.7129 O   0  0  0  0  0  0  0  0  0  0  0  0
   -4.5775    1.5953    0.3563 C   0  0  0  0  0  0  0  0  0  0  0  0
   -5.9600    1.0366    0.6925 C   0  0  0  0  0  0  0  0  0  0  0  0
   -7.0037    1.9751    0.4282 O   0  0  0  0  0  0  0  0  0  0  0  0
   -7.3758    2.0237   -0.9433 C   0  0  0  0  0  0  0  0  0  0  0  0
   -0.1115    3.5104   -0.8747 N   0  0  0  0  0  0  0  0  0  0  0  0
    1.1766    3.6606   -1.2022 C   0  0  0  0  0  0  0  0  0  0  0  0
    2.1230    2.7197   -1.1390 N   0  0  0  0  0  0  0  0  0  0  0  0
    1.7437    1.4999   -0.7162 C   0  0  0  0  0  0  0  0  0  0  0  0
    2.6988    0.4508   -0.6580 N   0  0  0  0  0  0  0  0  0  0  0  0
    4.1063    0.5174   -0.7488 C   0  0  0  0  0  0  0  0  0  0  0  0
    4.8432    1.6397   -0.3503 C   0  0  0  0  0  0  0  0  0  0  0  0
    6.2410    1.6378   -0.3883 C   0  0  0  0  0  0  0  0  0  0  0  0
    6.9273    0.5007   -0.8094 C   0  0  0  0  0  0  0  0  0  0  0  0
    6.2143   -0.6372   -1.1819 C   0  0  0  0  0  0  0  0  0  0  0  0
    4.8153   -0.6309   -1.1385 C   0  0  0  0  0  0  0  0  0  0  0  0
    6.9101   -1.8155   -1.6013 C   0  0  0  0  0  0  0  0  0  0  0  0
    7.4881   -2.8049   -1.9576 C   0  0  0  0  0  0  0  0  0  0  0  0
   -0.0453   -5.0781    2.4727 H   0  0  0  0  0  0  0  0  0  0  0  0
    1.4909   -4.3221    2.9419 H   0  0  0  0  0  0  0  0  0  0  0  0
    0.1777   -4.4335    4.1305 H   0  0  0  0  0  0  0  0  0  0  0  0
   -1.7299   -3.0186    3.8394 H   0  0  0  0  0  0  0  0  0  0  0  0
   -1.9607   -3.6476    2.1766 H   0  0  0  0  0  0  0  0  0  0  0  0
   -1.2711   -0.7295    2.8167 H   0  0  0  0  0  0  0  0  0  0  0  0
   -2.9457   -1.3161    2.5949 H   0  0  0  0  0  0  0  0  0  0  0  0
    0.6102   -0.8660    0.2570 H   0  0  0  0  0  0  0  0  0  0  0  0
   -2.4767    2.9719   -0.1835 H   0  0  0  0  0  0  0  0  0  0  0  0
   -4.5196    1.8182   -0.7151 H   0  0  0  0  0  0  0  0  0  0  0  0
   -4.4215    2.5230    0.9198 H   0  0  0  0  0  0  0  0  0  0  0  0
   -5.9969    0.8037    1.7631 H   0  0  0  0  0  0  0  0  0  0  0  0
   -6.1438    0.0883    0.1718 H   0  0  0  0  0  0  0  0  0  0  0  0
   -6.5532    2.4016   -1.5578 H   0  0  0  0  0  0  0  0  0  0  0  0
   -7.6879    1.0339   -1.2951 H   0  0  0  0  0  0  0  0  0  0  0  0
   -8.2223    2.7092   -1.0427 H   0  0  0  0  0  0  0  0  0  0  0  0
    1.4812    4.6396   -1.5621 H   0  0  0  0  0  0  0  0  0  0  0  0
    2.3296   -0.3683   -1.1319 H   0  0  0  0  0  0  0  0  0  0  0  0
    4.3366    2.5307    0.0103 H   0  0  0  0  0  0  0  0  0  0  0  0
    6.7902    2.5231   -0.0791 H   0  0  0  0  0  0  0  0  0  0  0  0
    8.0138    0.5058   -0.8343 H   0  0  0  0  0  0  0  0  0  0  0  0
    4.2763   -1.5337   -1.4157 H   0  0  0  0  0  0  0  0  0  0  0  0
    8.0002   -3.6808   -2.2783 H   0  0  0  0  0  0  0  0  0  0  0  0
  1  2  1  0
  2  3  1  0
  3  4  1  0
  4  5  1  0
  5  6  1  0
  6  7  2  0
  7  8  1  0
  8  9  2  0
  9 10  1  0
 10 11  2  0
 11 12  1  0
 12 13  1  0
 13 14  1  0
 14 15  1  0
 15 16  1  0
  9 17  1  0
 17 18  2  0
 18 19  1  0
 19 20  2  0
 20 21  1  0
 21 22  1  0
 22 23  2  0
 23 24  1  0
 24 25  2  0
 25 26  1  0
 26 27  2  0
 26 28  1  0
 28 29  3  0
 11  6  1  0
 20  8  1  0
 27 22  1  0
  1 30  1  0
  1 31  1  0
  1 32  1  0
  3 33  1  0
  3 34  1  0
  4 35  1  0
  4 36  1  0
  7 37  1  0
 10 38  1  0
 13 39  1  0
 13 40  1  0
 14 41  1  0
 14 42  1  0
 16 43  1  0
 16 44  1  0
 16 45  1  0
 18 46  1  0
 21 47  1  0
 23 48  1  0
 24 49  1  0
 25 50  1  0
 27 51  1  0
 29 52  1  0
M  END
>  <energy_abs>  (219) 
57.51640030000918

>  <SMILES>  (219) 
COCCOc1cc2c(cc1OCCOC)ncnc2Nc3cccc(c3)C#C

>  <cluster_no>  (219) 
219

>  <fda_drugs_id>  (219) 
AAKJLRGGTJKAMG-UHFFFAOYSA-N

>  <initial_conformation_id>  (219) 
79

>  <minimize_method>  (219) 
MMFF

$$$$

     RDKit          3D

 52 54  0  0  0  0  0  0  0  0999 V2000
    0.0380   -5.0436    2.7238 C   0  0  0  0  0  0  0  0  0  0  0  0
    0.5927   -3.7507    2.5178 O   0  0  0  0  0  0  0  0  0  0  0  0
   -0.3850   -2.7106    2.5534 C   0  0  0  0  0  0  0  0  0  0  0  0
   -1.1792   -2.6188    1.2495 C   0  0  0  0  0  0  0  0  0  0  0  0
   -2.0115   -1.4614    1.2310 O   0  0  0  0  0  0  0  0  0  0  0  0
   -1.5049   -0.2727    0.7733 C   0  0  0  0  0  0  0  0  0  0  0  0
   -0.1789   -0.0621    0.3916 C   0  0  0  0  0  0  0  0  0  0  0  0
    0.2614    1.2076   -0.0641 C   0  0  0  0  0  0  0  0  0  0  0  0
   -0.6563    2.2603   -0.1494 C   0  0  0  0  0  0  0  0  0  0  0  0
   -1.9721    2.0407    0.2387 C   0  0  0  0  0  0  0  0  0  0  0  0
   -2.4117    0.7974    0.7055 C   0  0  0  0  0  0  0  0  0  0  0  0
   -3.6950    0.5173    1.1010 O   0  0  0  0  0  0  0  0  0  0  0  0
   -4.6592    1.5665    1.1544 C   0  0  0  0  0  0  0  0  0  0  0  0
   -5.3721    1.7333   -0.1849 C   0  0  0  0  0  0  0  0  0  0  0  0
   -6.3193    2.7964   -0.0845 O   0  0  0  0  0  0  0  0  0  0  0  0
   -7.0219    2.9863   -1.3059 C   0  0  0  0  0  0  0  0  0  0  0  0
   -0.3222    3.4752   -0.5911 N   0  0  0  0  0  0  0  0  0  0  0  0
    0.9498    3.6522   -0.9615 C   0  0  0  0  0  0  0  0  0  0  0  0
    1.9166    2.7332   -0.9219 N   0  0  0  0  0  0  0  0  0  0  0  0
    1.5795    1.5145   -0.4641 C   0  0  0  0  0  0  0  0  0  0  0  0
    2.5767    0.5058   -0.3639 N   0  0  0  0  0  0  0  0  0  0  0  0
    3.8702    0.4827   -0.9343 C   0  0  0  0  0  0  0  0  0  0  0  0
    4.1835    1.1380   -2.1312 C   0  0  0  0  0  0  0  0  0  0  0  0
    5.4561    1.0343   -2.7012 C   0  0  0  0  0  0  0  0  0  0  0  0
    6.4315    0.2477   -2.0929 C   0  0  0  0  0  0  0  0  0  0  0  0
    6.1289   -0.4444   -0.9216 C   0  0  0  0  0  0  0  0  0  0  0  0
    4.8535   -0.3366   -0.3554 C   0  0  0  0  0  0  0  0  0  0  0  0
    7.1193   -1.2706   -0.3017 C   0  0  0  0  0  0  0  0  0  0  0  0
    7.9504   -1.9636    0.2190 C   0  0  0  0  0  0  0  0  0  0  0  0
   -0.6362   -5.3135    1.9067 H   0  0  0  0  0  0  0  0  0  0  0  0
   -0.4895   -5.0889    3.6813 H   0  0  0  0  0  0  0  0  0  0  0  0
    0.8577   -5.7670    2.7450 H   0  0  0  0  0  0  0  0  0  0  0  0
    0.1560   -1.7748    2.7276 H   0  0  0  0  0  0  0  0  0  0  0  0
   -1.0541   -2.8319    3.4142 H   0  0  0  0  0  0  0  0  0  0  0  0
   -1.8529   -3.4812    1.1873 H   0  0  0  0  0  0  0  0  0  0  0  0
   -0.5443   -2.7009    0.3596 H   0  0  0  0  0  0  0  0  0  0  0  0
    0.5416   -0.8722    0.4273 H   0  0  0  0  0  0  0  0  0  0  0  0
   -2.6496    2.8848    0.1554 H   0  0  0  0  0  0  0  0  0  0  0  0
   -4.2452    2.5080    1.5344 H   0  0  0  0  0  0  0  0  0  0  0  0
   -5.4037    1.2734    1.9051 H   0  0  0  0  0  0  0  0  0  0  0  0
   -5.8822    0.7991   -0.4494 H   0  0  0  0  0  0  0  0  0  0  0  0
   -4.6531    1.9535   -0.9816 H   0  0  0  0  0  0  0  0  0  0  0  0
   -7.5806    2.0835   -1.5706 H   0  0  0  0  0  0  0  0  0  0  0  0
   -6.3281    3.2504   -2.1098 H   0  0  0  0  0  0  0  0  0  0  0  0
   -7.7299    3.8085   -1.1714 H   0  0  0  0  0  0  0  0  0  0  0  0
    1.2231    4.6363   -1.3265 H   0  0  0  0  0  0  0  0  0  0  0  0
    2.5887    0.1499    0.5868 H   0  0  0  0  0  0  0  0  0  0  0  0
    3.4353    1.7374   -2.6431 H   0  0  0  0  0  0  0  0  0  0  0  0
    5.6790    1.5632   -3.6240 H   0  0  0  0  0  0  0  0  0  0  0  0
    7.4184    0.1702   -2.5420 H   0  0  0  0  0  0  0  0  0  0  0  0
    4.6307   -0.8974    0.5492 H   0  0  0  0  0  0  0  0  0  0  0  0
    8.6880   -2.5781    0.6803 H   0  0  0  0  0  0  0  0  0  0  0  0
  1  2  1  0
  2  3  1  0
  3  4  1  0
  4  5  1  0
  5  6  1  0
  6  7  2  0
  7  8  1  0
  8  9  2  0
  9 10  1  0
 10 11  2  0
 11 12  1  0
 12 13  1  0
 13 14  1  0
 14 15  1  0
 15 16  1  0
  9 17  1  0
 17 18  2  0
 18 19  1  0
 19 20  2  0
 20 21  1  0
 21 22  1  0
 22 23  2  0
 23 24  1  0
 24 25  2  0
 25 26  1  0
 26 27  2  0
 26 28  1  0
 28 29  3  0
 11  6  1  0
 20  8  1  0
 27 22  1  0
  1 30  1  0
  1 31  1  0
  1 32  1  0
  3 33  1  0
  3 34  1  0
  4 35  1  0
  4 36  1  0
  7 37  1  0
 10 38  1  0
 13 39  1  0
 13 40  1  0
 14 41  1  0
 14 42  1  0
 16 43  1  0
 16 44  1  0
 16 45  1  0
 18 46  1  0
 21 47  1  0
 23 48  1  0
 24 49  1  0
 25 50  1  0
 27 51  1  0
 29 52  1  0
M  END
>  <energy_abs>  (220) 
60.072414633166524

>  <SMILES>  (220) 
COCCOc1cc2c(cc1OCCOC)ncnc2Nc3cccc(c3)C#C

>  <cluster_no>  (220) 
220

>  <fda_drugs_id>  (220) 
AAKJLRGGTJKAMG-UHFFFAOYSA-N

>  <initial_conformation_id>  (220) 
78

>  <minimize_method>  (220) 
MMFF

$$$$

     RDKit          3D

 52 54  0  0  0  0  0  0  0  0999 V2000
   -1.7893   -4.1590    3.8147 C   0  0  0  0  0  0  0  0  0  0  0  0
   -0.7908   -3.7551    2.8879 O   0  0  0  0  0  0  0  0  0  0  0  0
   -1.3329   -3.2244    1.6760 C   0  0  0  0  0  0  0  0  0  0  0  0
   -1.8308   -1.7864    1.8389 C   0  0  0  0  0  0  0  0  0  0  0  0
   -2.1572   -1.2505    0.5457 O   0  0  0  0  0  0  0  0  0  0  0  0
   -1.4906   -0.0844    0.2700 C   0  0  0  0  0  0  0  0  0  0  0  0
   -0.0980   -0.0621    0.1943 C   0  0  0  0  0  0  0  0  0  0  0  0
    0.5855    1.1310   -0.1400 C   0  0  0  0  0  0  0  0  0  0  0  0
   -0.1537    2.2845   -0.4340 C   0  0  0  0  0  0  0  0  0  0  0  0
   -1.5434    2.2329   -0.3718 C   0  0  0  0  0  0  0  0  0  0  0  0
   -2.2288    1.0624   -0.0324 C   0  0  0  0  0  0  0  0  0  0  0  0
   -3.5909    0.9451    0.0522 O   0  0  0  0  0  0  0  0  0  0  0  0
   -4.3800    2.0218   -0.4624 C   0  0  0  0  0  0  0  0  0  0  0  0
   -5.8539    1.6196   -0.4034 C   0  0  0  0  0  0  0  0  0  0  0  0
   -6.3324    1.7481    0.9408 O   0  0  0  0  0  0  0  0  0  0  0  0
   -7.6838    1.3232    1.0591 C   0  0  0  0  0  0  0  0  0  0  0  0
    0.4233    3.4374   -0.7802 N   0  0  0  0  0  0  0  0  0  0  0  0
    1.7592    3.4468   -0.8454 C   0  0  0  0  0  0  0  0  0  0  0  0
    2.5693    2.4191   -0.5840 N   0  0  0  0  0  0  0  0  0  0  0  0
    1.9863    1.2638   -0.2212 C   0  0  0  0  0  0  0  0  0  0  0  0
    2.7994    0.1473    0.1161 N   0  0  0  0  0  0  0  0  0  0  0  0
    4.1760   -0.0451   -0.1409 C   0  0  0  0  0  0  0  0  0  0  0  0
    4.9069   -0.9160    0.6849 C   0  0  0  0  0  0  0  0  0  0  0  0
    6.2546   -1.1880    0.4349 C   0  0  0  0  0  0  0  0  0  0  0  0
    6.8859   -0.6144   -0.6675 C   0  0  0  0  0  0  0  0  0  0  0  0
    6.1657    0.2204   -1.5238 C   0  0  0  0  0  0  0  0  0  0  0  0
    4.8180    0.4941   -1.2640 C   0  0  0  0  0  0  0  0  0  0  0  0
    6.8040    0.7846   -2.6752 C   0  0  0  0  0  0  0  0  0  0  0  0
    7.3411    1.2578   -3.6404 C   0  0  0  0  0  0  0  0  0  0  0  0
   -2.4510   -4.9092    3.3697 H   0  0  0  0  0  0  0  0  0  0  0  0
   -2.3686   -3.3020    4.1634 H   0  0  0  0  0  0  0  0  0  0  0  0
   -1.2888   -4.6084    4.6770 H   0  0  0  0  0  0  0  0  0  0  0  0
   -0.5292   -3.2438    0.9308 H   0  0  0  0  0  0  0  0  0  0  0  0
   -2.1239   -3.8746    1.2812 H   0  0  0  0  0  0  0  0  0  0  0  0
   -1.0987   -1.1857    2.3972 H   0  0  0  0  0  0  0  0  0  0  0  0
   -2.7503   -1.7729    2.4390 H   0  0  0  0  0  0  0  0  0  0  0  0
    0.4579   -0.9804    0.3666 H   0  0  0  0  0  0  0  0  0  0  0  0
   -2.0788    3.1499   -0.5984 H   0  0  0  0  0  0  0  0  0  0  0  0
   -4.2191    2.9195    0.1444 H   0  0  0  0  0  0  0  0  0  0  0  0
   -4.1073    2.2053   -1.5078 H   0  0  0  0  0  0  0  0  0  0  0  0
   -6.4401    2.2867   -1.0444 H   0  0  0  0  0  0  0  0  0  0  0  0
   -5.9805    0.5830   -0.7362 H   0  0  0  0  0  0  0  0  0  0  0  0
   -7.7720    0.2586    0.8182 H   0  0  0  0  0  0  0  0  0  0  0  0
   -8.3308    1.9140    0.4031 H   0  0  0  0  0  0  0  0  0  0  0  0
   -8.0034    1.4755    2.0949 H   0  0  0  0  0  0  0  0  0  0  0  0
    2.2304    4.3783   -1.1363 H   0  0  0  0  0  0  0  0  0  0  0  0
    2.5491   -0.1677    1.0483 H   0  0  0  0  0  0  0  0  0  0  0  0
    4.4326   -1.3926    1.5392 H   0  0  0  0  0  0  0  0  0  0  0  0
    6.8078   -1.8519    1.0952 H   0  0  0  0  0  0  0  0  0  0  0  0
    7.9331   -0.8318   -0.8625 H   0  0  0  0  0  0  0  0  0  0  0  0
    4.2665    1.1298   -1.9539 H   0  0  0  0  0  0  0  0  0  0  0  0
    7.8165    1.6836   -4.4925 H   0  0  0  0  0  0  0  0  0  0  0  0
  1  2  1  0
  2  3  1  0
  3  4  1  0
  4  5  1  0
  5  6  1  0
  6  7  2  0
  7  8  1  0
  8  9  2  0
  9 10  1  0
 10 11  2  0
 11 12  1  0
 12 13  1  0
 13 14  1  0
 14 15  1  0
 15 16  1  0
  9 17  1  0
 17 18  2  0
 18 19  1  0
 19 20  2  0
 20 21  1  0
 21 22  1  0
 22 23  2  0
 23 24  1  0
 24 25  2  0
 25 26  1  0
 26 27  2  0
 26 28  1  0
 28 29  3  0
 11  6  1  0
 20  8  1  0
 27 22  1  0
  1 30  1  0
  1 31  1  0
  1 32  1  0
  3 33  1  0
  3 34  1  0
  4 35  1  0
  4 36  1  0
  7 37  1  0
 10 38  1  0
 13 39  1  0
 13 40  1  0
 14 41  1  0
 14 42  1  0
 16 43  1  0
 16 44  1  0
 16 45  1  0
 18 46  1  0
 21 47  1  0
 23 48  1  0
 24 49  1  0
 25 50  1  0
 27 51  1  0
 29 52  1  0
M  END
>  <energy_abs>  (221) 
60.175167869391615

>  <SMILES>  (221) 
COCCOc1cc2c(cc1OCCOC)ncnc2Nc3cccc(c3)C#C

>  <cluster_no>  (221) 
221

>  <fda_drugs_id>  (221) 
AAKJLRGGTJKAMG-UHFFFAOYSA-N

>  <initial_conformation_id>  (221) 
77

>  <minimize_method>  (221) 
MMFF

$$$$

     RDKit          3D

 52 54  0  0  0  0  0  0  0  0999 V2000
   -2.7781   -5.1038    1.0168 C   0  0  0  0  0  0  0  0  0  0  0  0
   -2.9192   -4.4726    2.2828 O   0  0  0  0  0  0  0  0  0  0  0  0
   -1.9501   -3.4496    2.5095 C   0  0  0  0  0  0  0  0  0  0  0  0
   -2.3154   -2.1321    1.8246 C   0  0  0  0  0  0  0  0  0  0  0  0
   -1.3209   -1.1595    2.1630 O   0  0  0  0  0  0  0  0  0  0  0  0
   -1.0916   -0.2160    1.1957 C   0  0  0  0  0  0  0  0  0  0  0  0
    0.2578    0.0318    0.9404 C   0  0  0  0  0  0  0  0  0  0  0  0
    0.6548    0.9877   -0.0229 C   0  0  0  0  0  0  0  0  0  0  0  0
   -0.3291    1.6936   -0.7241 C   0  0  0  0  0  0  0  0  0  0  0  0
   -1.6699    1.4559   -0.4328 C   0  0  0  0  0  0  0  0  0  0  0  0
   -2.0761    0.5185    0.5248 C   0  0  0  0  0  0  0  0  0  0  0  0
   -3.3745    0.2845    0.8832 O   0  0  0  0  0  0  0  0  0  0  0  0
   -4.4327    0.9514    0.1962 C   0  0  0  0  0  0  0  0  0  0  0  0
   -4.7521    2.3019    0.8395 C   0  0  0  0  0  0  0  0  0  0  0  0
   -5.7662    3.0083    0.1252 O   0  0  0  0  0  0  0  0  0  0  0  0
   -7.0809    2.5752    0.4482 C   0  0  0  0  0  0  0  0  0  0  0  0
   -0.0346    2.5967   -1.6624 N   0  0  0  0  0  0  0  0  0  0  0  0
    1.2623    2.7989   -1.9184 C   0  0  0  0  0  0  0  0  0  0  0  0
    2.2879    2.1941   -1.3151 N   0  0  0  0  0  0  0  0  0  0  0  0
    1.9888    1.2968   -0.3594 C   0  0  0  0  0  0  0  0  0  0  0  0
    3.0397    0.6477    0.3448 N   0  0  0  0  0  0  0  0  0  0  0  0
    4.4157    0.5954    0.0235 C   0  0  0  0  0  0  0  0  0  0  0  0
    5.3425    0.3454    1.0491 C   0  0  0  0  0  0  0  0  0  0  0  0
    6.7074    0.2238    0.7756 C   0  0  0  0  0  0  0  0  0  0  0  0
    7.1662    0.3230   -0.5356 C   0  0  0  0  0  0  0  0  0  0  0  0
    6.2572    0.5282   -1.5721 C   0  0  0  0  0  0  0  0  0  0  0  0
    4.8912    0.6515   -1.2925 C   0  0  0  0  0  0  0  0  0  0  0  0
    6.7223    0.6051   -2.9231 C   0  0  0  0  0  0  0  0  0  0  0  0
    7.1165    0.6728   -4.0554 C   0  0  0  0  0  0  0  0  0  0  0  0
   -3.5041   -5.9194    0.9592 H   0  0  0  0  0  0  0  0  0  0  0  0
   -1.7759   -5.5277    0.9074 H   0  0  0  0  0  0  0  0  0  0  0  0
   -2.9832   -4.4018    0.2044 H   0  0  0  0  0  0  0  0  0  0  0  0
   -0.9497   -3.7870    2.2113 H   0  0  0  0  0  0  0  0  0  0  0  0
   -1.9011   -3.2830    3.5919 H   0  0  0  0  0  0  0  0  0  0  0  0
   -3.2950   -1.8041    2.1903 H   0  0  0  0  0  0  0  0  0  0  0  0
   -2.3804   -2.2844    0.7408 H   0  0  0  0  0  0  0  0  0  0  0  0
    1.0016   -0.5474    1.4826 H   0  0  0  0  0  0  0  0  0  0  0  0
   -2.3925    2.0513   -0.9832 H   0  0  0  0  0  0  0  0  0  0  0  0
   -5.3100    0.3006    0.2861 H   0  0  0  0  0  0  0  0  0  0  0  0
   -4.2592    1.0283   -0.8835 H   0  0  0  0  0  0  0  0  0  0  0  0
   -3.8578    2.9343    0.8327 H   0  0  0  0  0  0  0  0  0  0  0  0
   -5.0256    2.1819    1.8953 H   0  0  0  0  0  0  0  0  0  0  0  0
   -7.2338    1.5340    0.1510 H   0  0  0  0  0  0  0  0  0  0  0  0
   -7.7911    3.1984   -0.1036 H   0  0  0  0  0  0  0  0  0  0  0  0
   -7.2731    2.6955    1.5184 H   0  0  0  0  0  0  0  0  0  0  0  0
    1.5045    3.5253   -2.6870 H   0  0  0  0  0  0  0  0  0  0  0  0
    2.8977    0.7851    1.3402 H   0  0  0  0  0  0  0  0  0  0  0  0
    5.0103    0.2499    2.0792 H   0  0  0  0  0  0  0  0  0  0  0  0
    7.4103    0.0443    1.5851 H   0  0  0  0  0  0  0  0  0  0  0  0
    8.2286    0.2263   -0.7449 H   0  0  0  0  0  0  0  0  0  0  0  0
    4.1965    0.7890   -2.1172 H   0  0  0  0  0  0  0  0  0  0  0  0
    7.4609    0.7336   -5.0610 H   0  0  0  0  0  0  0  0  0  0  0  0
  1  2  1  0
  2  3  1  0
  3  4  1  0
  4  5  1  0
  5  6  1  0
  6  7  2  0
  7  8  1  0
  8  9  2  0
  9 10  1  0
 10 11  2  0
 11 12  1  0
 12 13  1  0
 13 14  1  0
 14 15  1  0
 15 16  1  0
  9 17  1  0
 17 18  2  0
 18 19  1  0
 19 20  2  0
 20 21  1  0
 21 22  1  0
 22 23  2  0
 23 24  1  0
 24 25  2  0
 25 26  1  0
 26 27  2  0
 26 28  1  0
 28 29  3  0
 11  6  1  0
 20  8  1  0
 27 22  1  0
  1 30  1  0
  1 31  1  0
  1 32  1  0
  3 33  1  0
  3 34  1  0
  4 35  1  0
  4 36  1  0
  7 37  1  0
 10 38  1  0
 13 39  1  0
 13 40  1  0
 14 41  1  0
 14 42  1  0
 16 43  1  0
 16 44  1  0
 16 45  1  0
 18 46  1  0
 21 47  1  0
 23 48  1  0
 24 49  1  0
 25 50  1  0
 27 51  1  0
 29 52  1  0
M  END
>  <energy_abs>  (222) 
59.94982105743963

>  <SMILES>  (222) 
COCCOc1cc2c(cc1OCCOC)ncnc2Nc3cccc(c3)C#C

>  <cluster_no>  (222) 
222

>  <fda_drugs_id>  (222) 
AAKJLRGGTJKAMG-UHFFFAOYSA-N

>  <initial_conformation_id>  (222) 
76

>  <minimize_method>  (222) 
MMFF

$$$$

     RDKit          3D

 52 54  0  0  0  0  0  0  0  0999 V2000
    0.7291   -4.4224    3.0937 C   0  0  0  0  0  0  0  0  0  0  0  0
    0.6452   -4.0008    1.7378 O   0  0  0  0  0  0  0  0  0  0  0  0
   -0.2035   -2.8595    1.6015 C   0  0  0  0  0  0  0  0  0  0  0  0
   -0.3226   -2.4855    0.1254 C   0  0  0  0  0  0  0  0  0  0  0  0
   -1.2654   -1.4320   -0.0719 O   0  0  0  0  0  0  0  0  0  0  0  0
   -0.9142   -0.1375    0.1814 C   0  0  0  0  0  0  0  0  0  0  0  0
    0.3966    0.3201    0.3277 C   0  0  0  0  0  0  0  0  0  0  0  0
    0.6748    1.6970    0.5190 C   0  0  0  0  0  0  0  0  0  0  0  0
   -0.3865    2.6067    0.6054 C   0  0  0  0  0  0  0  0  0  0  0  0
   -1.6889    2.1367    0.4772 C   0  0  0  0  0  0  0  0  0  0  0  0
   -1.9708    0.7843    0.2595 C   0  0  0  0  0  0  0  0  0  0  0  0
   -3.2292    0.2615    0.1013 O   0  0  0  0  0  0  0  0  0  0  0  0
   -4.3629    1.0764    0.3981 C   0  0  0  0  0  0  0  0  0  0  0  0
   -4.8520    1.8165   -0.8469 C   0  0  0  0  0  0  0  0  0  0  0  0
   -5.8887    2.7521   -0.5466 O   0  0  0  0  0  0  0  0  0  0  0  0
   -7.1598    2.1365   -0.3739 C   0  0  0  0  0  0  0  0  0  0  0  0
   -0.2078    3.9125    0.8128 N   0  0  0  0  0  0  0  0  0  0  0  0
    1.0566    4.3425    0.9228 C   0  0  0  0  0  0  0  0  0  0  0  0
    2.1527    3.5834    0.8592 N   0  0  0  0  0  0  0  0  0  0  0  0
    1.9577    2.2705    0.6407 C   0  0  0  0  0  0  0  0  0  0  0  0
    3.1500    1.5183    0.5804 N   0  0  0  0  0  0  0  0  0  0  0  0
    3.5809    0.6990   -0.4959 C   0  0  0  0  0  0  0  0  0  0  0  0
    3.0895    0.8312   -1.8015 C   0  0  0  0  0  0  0  0  0  0  0  0
    3.5763    0.0231   -2.8278 C   0  0  0  0  0  0  0  0  0  0  0  0
    4.5960   -0.8930   -2.5735 C   0  0  0  0  0  0  0  0  0  0  0  0
    5.1282   -1.0007   -1.2879 C   0  0  0  0  0  0  0  0  0  0  0  0
    4.6253   -0.2036   -0.2565 C   0  0  0  0  0  0  0  0  0  0  0  0
    6.2004   -1.9142   -1.0273 C   0  0  0  0  0  0  0  0  0  0  0  0
    7.1117   -2.6648   -0.8050 C   0  0  0  0  0  0  0  0  0  0  0  0
   -0.2567   -4.7351    3.4555 H   0  0  0  0  0  0  0  0  0  0  0  0
    1.4168   -5.2720    3.1501 H   0  0  0  0  0  0  0  0  0  0  0  0
    1.1193   -3.6183    3.7212 H   0  0  0  0  0  0  0  0  0  0  0  0
    0.2224   -2.0259    2.1697 H   0  0  0  0  0  0  0  0  0  0  0  0
   -1.1977   -3.0697    2.0183 H   0  0  0  0  0  0  0  0  0  0  0  0
    0.6532   -2.2695   -0.3186 H   0  0  0  0  0  0  0  0  0  0  0  0
   -0.6905   -3.3564   -0.4283 H   0  0  0  0  0  0  0  0  0  0  0  0
    1.2313   -0.3698    0.2808 H   0  0  0  0  0  0  0  0  0  0  0  0
   -2.4814    2.8763    0.5341 H   0  0  0  0  0  0  0  0  0  0  0  0
   -4.2001    1.7489    1.2499 H   0  0  0  0  0  0  0  0  0  0  0  0
   -5.1509    0.3928    0.7333 H   0  0  0  0  0  0  0  0  0  0  0  0
   -4.0287    2.3867   -1.2896 H   0  0  0  0  0  0  0  0  0  0  0  0
   -5.1755    1.1099   -1.6209 H   0  0  0  0  0  0  0  0  0  0  0  0
   -7.1606    1.4892    0.5085 H   0  0  0  0  0  0  0  0  0  0  0  0
   -7.9036    2.9242   -0.2218 H   0  0  0  0  0  0  0  0  0  0  0  0
   -7.4336    1.5635   -1.2662 H   0  0  0  0  0  0  0  0  0  0  0  0
    1.1972    5.4058    1.0899 H   0  0  0  0  0  0  0  0  0  0  0  0
    3.8718    2.2302    0.7209 H   0  0  0  0  0  0  0  0  0  0  0  0
    2.3154    1.5627   -2.0347 H   0  0  0  0  0  0  0  0  0  0  0  0
    3.1726    0.1202   -3.8335 H   0  0  0  0  0  0  0  0  0  0  0  0
    4.9805   -1.5104   -3.3829 H   0  0  0  0  0  0  0  0  0  0  0  0
    5.0414   -0.2915    0.7457 H   0  0  0  0  0  0  0  0  0  0  0  0
    7.9251   -3.3229   -0.6056 H   0  0  0  0  0  0  0  0  0  0  0  0
  1  2  1  0
  2  3  1  0
  3  4  1  0
  4  5  1  0
  5  6  1  0
  6  7  2  0
  7  8  1  0
  8  9  2  0
  9 10  1  0
 10 11  2  0
 11 12  1  0
 12 13  1  0
 13 14  1  0
 14 15  1  0
 15 16  1  0
  9 17  1  0
 17 18  2  0
 18 19  1  0
 19 20  2  0
 20 21  1  0
 21 22  1  0
 22 23  2  0
 23 24  1  0
 24 25  2  0
 25 26  1  0
 26 27  2  0
 26 28  1  0
 28 29  3  0
 11  6  1  0
 20  8  1  0
 27 22  1  0
  1 30  1  0
  1 31  1  0
  1 32  1  0
  3 33  1  0
  3 34  1  0
  4 35  1  0
  4 36  1  0
  7 37  1  0
 10 38  1  0
 13 39  1  0
 13 40  1  0
 14 41  1  0
 14 42  1  0
 16 43  1  0
 16 44  1  0
 16 45  1  0
 18 46  1  0
 21 47  1  0
 23 48  1  0
 24 49  1  0
 25 50  1  0
 27 51  1  0
 29 52  1  0
M  END
>  <energy_abs>  (223) 
57.37249463621422

>  <SMILES>  (223) 
COCCOc1cc2c(cc1OCCOC)ncnc2Nc3cccc(c3)C#C

>  <cluster_no>  (223) 
223

>  <fda_drugs_id>  (223) 
AAKJLRGGTJKAMG-UHFFFAOYSA-N

>  <initial_conformation_id>  (223) 
75

>  <minimize_method>  (223) 
MMFF

$$$$

     RDKit          3D

 52 54  0  0  0  0  0  0  0  0999 V2000
   -2.6795   -4.3053    0.5881 C   0  0  0  0  0  0  0  0  0  0  0  0
   -1.3816   -3.7793    0.3473 O   0  0  0  0  0  0  0  0  0  0  0  0
   -0.9286   -2.8634    1.3488 C   0  0  0  0  0  0  0  0  0  0  0  0
   -1.7688   -1.5887    1.4791 C   0  0  0  0  0  0  0  0  0  0  0  0
   -1.9779   -0.9717    0.1984 O   0  0  0  0  0  0  0  0  0  0  0  0
   -1.4225    0.2718    0.1000 C   0  0  0  0  0  0  0  0  0  0  0  0
   -0.0379    0.3630   -0.0616 C   0  0  0  0  0  0  0  0  0  0  0  0
    0.5956    1.6130   -0.2873 C   0  0  0  0  0  0  0  0  0  0  0  0
   -0.1899    2.7671   -0.3789 C   0  0  0  0  0  0  0  0  0  0  0  0
   -1.5670    2.6485   -0.2447 C   0  0  0  0  0  0  0  0  0  0  0  0
   -2.2022    1.4236   -0.0008 C   0  0  0  0  0  0  0  0  0  0  0  0
   -3.5668    1.5107    0.0441 O   0  0  0  0  0  0  0  0  0  0  0  0
   -4.2392    0.6143    0.9217 C   0  0  0  0  0  0  0  0  0  0  0  0
   -5.6434    1.1523    1.1850 C   0  0  0  0  0  0  0  0  0  0  0  0
   -6.3224    0.2821    2.0933 O   0  0  0  0  0  0  0  0  0  0  0  0
   -7.6576    0.7142    2.3170 C   0  0  0  0  0  0  0  0  0  0  0  0
    0.3284    3.9755   -0.6045 N   0  0  0  0  0  0  0  0  0  0  0  0
    1.6537    4.0412   -0.7636 C   0  0  0  0  0  0  0  0  0  0  0  0
    2.5068    3.0148   -0.7062 N   0  0  0  0  0  0  0  0  0  0  0  0
    1.9838    1.8025   -0.4618 C   0  0  0  0  0  0  0  0  0  0  0  0
    2.8423    0.6745   -0.3610 N   0  0  0  0  0  0  0  0  0  0  0  0
    4.1978    0.5462   -0.7429 C   0  0  0  0  0  0  0  0  0  0  0  0
    4.7872    1.3179   -1.7498 C   0  0  0  0  0  0  0  0  0  0  0  0
    6.1126    1.1057   -2.1410 C   0  0  0  0  0  0  0  0  0  0  0  0
    6.8658    0.0952   -1.5447 C   0  0  0  0  0  0  0  0  0  0  0  0
    6.2825   -0.7152   -0.5742 C   0  0  0  0  0  0  0  0  0  0  0  0
    4.9571   -0.4943   -0.1848 C   0  0  0  0  0  0  0  0  0  0  0  0
    7.0317   -1.7799    0.0131 C   0  0  0  0  0  0  0  0  0  0  0  0
    7.6587   -2.6817    0.5011 C   0  0  0  0  0  0  0  0  0  0  0  0
   -3.4395   -3.5405    0.4121 H   0  0  0  0  0  0  0  0  0  0  0  0
   -2.8543   -5.1173   -0.1249 H   0  0  0  0  0  0  0  0  0  0  0  0
   -2.7606   -4.7026    1.6046 H   0  0  0  0  0  0  0  0  0  0  0  0
    0.0962   -2.5929    1.0672 H   0  0  0  0  0  0  0  0  0  0  0  0
   -0.8712   -3.3838    2.3135 H   0  0  0  0  0  0  0  0  0  0  0  0
   -1.3106   -0.9069    2.2080 H   0  0  0  0  0  0  0  0  0  0  0  0
   -2.7624   -1.8448    1.8663 H   0  0  0  0  0  0  0  0  0  0  0  0
    0.5473   -0.5514   -0.0663 H   0  0  0  0  0  0  0  0  0  0  0  0
   -2.1734    3.5450   -0.3413 H   0  0  0  0  0  0  0  0  0  0  0  0
   -4.3268   -0.3749    0.4643 H   0  0  0  0  0  0  0  0  0  0  0  0
   -3.7097    0.5247    1.8766 H   0  0  0  0  0  0  0  0  0  0  0  0
   -5.5818    2.1630    1.6093 H   0  0  0  0  0  0  0  0  0  0  0  0
   -6.1975    1.2192    0.2406 H   0  0  0  0  0  0  0  0  0  0  0  0
   -8.2345    0.6444    1.3885 H   0  0  0  0  0  0  0  0  0  0  0  0
   -7.6739    1.7360    2.7050 H   0  0  0  0  0  0  0  0  0  0  0  0
   -8.1150    0.0505    3.0571 H   0  0  0  0  0  0  0  0  0  0  0  0
    2.0770    5.0189   -0.9564 H   0  0  0  0  0  0  0  0  0  0  0  0
    2.6598    0.2022    0.5170 H   0  0  0  0  0  0  0  0  0  0  0  0
    4.2141    2.0901   -2.2561 H   0  0  0  0  0  0  0  0  0  0  0  0
    6.5486    1.7266   -2.9189 H   0  0  0  0  0  0  0  0  0  0  0  0
    7.8910   -0.0706   -1.8565 H   0  0  0  0  0  0  0  0  0  0  0  0
    4.5175   -1.1457    0.5670 H   0  0  0  0  0  0  0  0  0  0  0  0
    8.2156   -3.4801    0.9302 H   0  0  0  0  0  0  0  0  0  0  0  0
  1  2  1  0
  2  3  1  0
  3  4  1  0
  4  5  1  0
  5  6  1  0
  6  7  2  0
  7  8  1  0
  8  9  2  0
  9 10  1  0
 10 11  2  0
 11 12  1  0
 12 13  1  0
 13 14  1  0
 14 15  1  0
 15 16  1  0
  9 17  1  0
 17 18  2  0
 18 19  1  0
 19 20  2  0
 20 21  1  0
 21 22  1  0
 22 23  2  0
 23 24  1  0
 24 25  2  0
 25 26  1  0
 26 27  2  0
 26 28  1  0
 28 29  3  0
 11  6  1  0
 20  8  1  0
 27 22  1  0
  1 30  1  0
  1 31  1  0
  1 32  1  0
  3 33  1  0
  3 34  1  0
  4 35  1  0
  4 36  1  0
  7 37  1  0
 10 38  1  0
 13 39  1  0
 13 40  1  0
 14 41  1  0
 14 42  1  0
 16 43  1  0
 16 44  1  0
 16 45  1  0
 18 46  1  0
 21 47  1  0
 23 48  1  0
 24 49  1  0
 25 50  1  0
 27 51  1  0
 29 52  1  0
M  END
>  <energy_abs>  (224) 
62.517299196081645

>  <SMILES>  (224) 
COCCOc1cc2c(cc1OCCOC)ncnc2Nc3cccc(c3)C#C

>  <cluster_no>  (224) 
224

>  <fda_drugs_id>  (224) 
AAKJLRGGTJKAMG-UHFFFAOYSA-N

>  <initial_conformation_id>  (224) 
74

>  <minimize_method>  (224) 
MMFF

$$$$

     RDKit          3D

 52 54  0  0  0  0  0  0  0  0999 V2000
   -3.1118   -5.8785   -0.7151 C   0  0  0  0  0  0  0  0  0  0  0  0
   -2.1611   -4.8205   -0.7442 O   0  0  0  0  0  0  0  0  0  0  0  0
   -2.7457   -3.5870   -0.3213 C   0  0  0  0  0  0  0  0  0  0  0  0
   -1.6885   -2.4876   -0.3547 C   0  0  0  0  0  0  0  0  0  0  0  0
   -2.2915   -1.2674    0.0714 O   0  0  0  0  0  0  0  0  0  0  0  0
   -1.5437   -0.1258   -0.0200 C   0  0  0  0  0  0  0  0  0  0  0  0
   -0.1799   -0.0792   -0.3069 C   0  0  0  0  0  0  0  0  0  0  0  0
    0.5107    1.1615   -0.4063 C   0  0  0  0  0  0  0  0  0  0  0  0
   -0.1865    2.3599   -0.2010 C   0  0  0  0  0  0  0  0  0  0  0  0
   -1.5403    2.3013    0.0869 C   0  0  0  0  0  0  0  0  0  0  0  0
   -2.2102    1.0818    0.2025 C   0  0  0  0  0  0  0  0  0  0  0  0
   -3.5552    1.1452    0.4659 O   0  0  0  0  0  0  0  0  0  0  0  0
   -3.8867    0.6175    1.7639 C   0  0  0  0  0  0  0  0  0  0  0  0
   -4.3541    1.7565    2.6717 C   0  0  0  0  0  0  0  0  0  0  0  0
   -5.6532    2.2061    2.2704 O   0  0  0  0  0  0  0  0  0  0  0  0
   -6.0750    3.3348    3.0254 C   0  0  0  0  0  0  0  0  0  0  0  0
    0.3986    3.5585   -0.2647 N   0  0  0  0  0  0  0  0  0  0  0  0
    1.7080    3.5744   -0.5296 C   0  0  0  0  0  0  0  0  0  0  0  0
    2.4808    2.5078   -0.7445 N   0  0  0  0  0  0  0  0  0  0  0  0
    1.8846    1.3030   -0.6935 C   0  0  0  0  0  0  0  0  0  0  0  0
    2.6516    0.1342   -0.9537 N   0  0  0  0  0  0  0  0  0  0  0  0
    4.0578   -0.0114   -0.9790 C   0  0  0  0  0  0  0  0  0  0  0  0
    4.6151   -1.0872   -1.6895 C   0  0  0  0  0  0  0  0  0  0  0  0
    5.9934   -1.3194   -1.6880 C   0  0  0  0  0  0  0  0  0  0  0  0
    6.8369   -0.4907   -0.9530 C   0  0  0  0  0  0  0  0  0  0  0  0
    6.2996    0.5613   -0.2115 C   0  0  0  0  0  0  0  0  0  0  0  0
    4.9184    0.7885   -0.2159 C   0  0  0  0  0  0  0  0  0  0  0  0
    7.1613    1.4028    0.5605 C   0  0  0  0  0  0  0  0  0  0  0  0
    7.8853    2.1142    1.2031 C   0  0  0  0  0  0  0  0  0  0  0  0
   -2.6313   -6.7872   -1.0853 H   0  0  0  0  0  0  0  0  0  0  0  0
   -3.9646   -5.6464   -1.3596 H   0  0  0  0  0  0  0  0  0  0  0  0
   -3.4521   -6.0549    0.3093 H   0  0  0  0  0  0  0  0  0  0  0  0
   -3.1458   -3.6876    0.6951 H   0  0  0  0  0  0  0  0  0  0  0  0
   -3.5799   -3.3208   -0.9840 H   0  0  0  0  0  0  0  0  0  0  0  0
   -0.8643   -2.7613    0.3149 H   0  0  0  0  0  0  0  0  0  0  0  0
   -1.2982   -2.3973   -1.3762 H   0  0  0  0  0  0  0  0  0  0  0  0
    0.3826   -0.9972   -0.4423 H   0  0  0  0  0  0  0  0  0  0  0  0
   -2.0931    3.2261    0.2328 H   0  0  0  0  0  0  0  0  0  0  0  0
   -3.0381    0.1108    2.2414 H   0  0  0  0  0  0  0  0  0  0  0  0
   -4.6909   -0.1129    1.6200 H   0  0  0  0  0  0  0  0  0  0  0  0
   -3.6476    2.5937    2.6155 H   0  0  0  0  0  0  0  0  0  0  0  0
   -4.4106    1.3990    3.7041 H   0  0  0  0  0  0  0  0  0  0  0  0
   -7.0780    3.6216    2.6918 H   0  0  0  0  0  0  0  0  0  0  0  0
   -5.4029    4.1831    2.8569 H   0  0  0  0  0  0  0  0  0  0  0  0
   -6.1173    3.0909    4.0911 H   0  0  0  0  0  0  0  0  0  0  0  0
    2.1884    4.5455   -0.5763 H   0  0  0  0  0  0  0  0  0  0  0  0
    2.2136   -0.3794   -1.7124 H   0  0  0  0  0  0  0  0  0  0  0  0
    3.9772   -1.7597   -2.2578 H   0  0  0  0  0  0  0  0  0  0  0  0
    6.4061   -2.1504   -2.2540 H   0  0  0  0  0  0  0  0  0  0  0  0
    7.9085   -0.6749   -0.9528 H   0  0  0  0  0  0  0  0  0  0  0  0
    4.5169    1.5967    0.3896 H   0  0  0  0  0  0  0  0  0  0  0  0
    8.5259    2.7470    1.7704 H   0  0  0  0  0  0  0  0  0  0  0  0
  1  2  1  0
  2  3  1  0
  3  4  1  0
  4  5  1  0
  5  6  1  0
  6  7  2  0
  7  8  1  0
  8  9  2  0
  9 10  1  0
 10 11  2  0
 11 12  1  0
 12 13  1  0
 13 14  1  0
 14 15  1  0
 15 16  1  0
  9 17  1  0
 17 18  2  0
 18 19  1  0
 19 20  2  0
 20 21  1  0
 21 22  1  0
 22 23  2  0
 23 24  1  0
 24 25  2  0
 25 26  1  0
 26 27  2  0
 26 28  1  0
 28 29  3  0
 11  6  1  0
 20  8  1  0
 27 22  1  0
  1 30  1  0
  1 31  1  0
  1 32  1  0
  3 33  1  0
  3 34  1  0
  4 35  1  0
  4 36  1  0
  7 37  1  0
 10 38  1  0
 13 39  1  0
 13 40  1  0
 14 41  1  0
 14 42  1  0
 16 43  1  0
 16 44  1  0
 16 45  1  0
 18 46  1  0
 21 47  1  0
 23 48  1  0
 24 49  1  0
 25 50  1  0
 27 51  1  0
 29 52  1  0
M  END
>  <energy_abs>  (225) 
58.019368402734585

>  <SMILES>  (225) 
COCCOc1cc2c(cc1OCCOC)ncnc2Nc3cccc(c3)C#C

>  <cluster_no>  (225) 
225

>  <fda_drugs_id>  (225) 
AAKJLRGGTJKAMG-UHFFFAOYSA-N

>  <initial_conformation_id>  (225) 
73

>  <minimize_method>  (225) 
MMFF

$$$$

     RDKit          3D

 52 54  0  0  0  0  0  0  0  0999 V2000
   -3.3088   -4.0267    0.6010 C   0  0  0  0  0  0  0  0  0  0  0  0
   -3.8036   -3.9406   -0.7289 O   0  0  0  0  0  0  0  0  0  0  0  0
   -2.9516   -3.1998   -1.6121 C   0  0  0  0  0  0  0  0  0  0  0  0
   -2.9423   -1.6949   -1.3249 C   0  0  0  0  0  0  0  0  0  0  0  0
   -2.0117   -1.4320   -0.2600 O   0  0  0  0  0  0  0  0  0  0  0  0
   -1.4769   -0.1738   -0.2802 C   0  0  0  0  0  0  0  0  0  0  0  0
   -0.0955   -0.1062   -0.1089 C   0  0  0  0  0  0  0  0  0  0  0  0
    0.5803    1.1401   -0.0906 C   0  0  0  0  0  0  0  0  0  0  0  0
   -0.1565    2.3215   -0.2562 C   0  0  0  0  0  0  0  0  0  0  0  0
   -1.5342    2.2373   -0.4028 C   0  0  0  0  0  0  0  0  0  0  0  0
   -2.2029    1.0098   -0.3787 C   0  0  0  0  0  0  0  0  0  0  0  0
   -3.5661    0.9865   -0.5027 O   0  0  0  0  0  0  0  0  0  0  0  0
   -4.2263    1.4481    0.6858 C   0  0  0  0  0  0  0  0  0  0  0  0
   -4.4443    0.3059    1.6825 C   0  0  0  0  0  0  0  0  0  0  0  0
   -5.1678    0.7297    2.8392 O   0  0  0  0  0  0  0  0  0  0  0  0
   -4.3506    1.4006    3.7934 C   0  0  0  0  0  0  0  0  0  0  0  0
    0.4093    3.5310   -0.2697 N   0  0  0  0  0  0  0  0  0  0  0  0
    1.7377    3.5726   -0.1264 C   0  0  0  0  0  0  0  0  0  0  0  0
    2.5456    2.5226    0.0433 N   0  0  0  0  0  0  0  0  0  0  0  0
    1.9711    1.3069    0.0694 C   0  0  0  0  0  0  0  0  0  0  0  0
    2.7790    0.1552    0.2747 N   0  0  0  0  0  0  0  0  0  0  0  0
    4.1856    0.0366    0.1987 C   0  0  0  0  0  0  0  0  0  0  0  0
    4.8114   -1.0336    0.8601 C   0  0  0  0  0  0  0  0  0  0  0  0
    6.1903   -1.2398    0.7603 C   0  0  0  0  0  0  0  0  0  0  0  0
    6.9652   -0.3897   -0.0249 C   0  0  0  0  0  0  0  0  0  0  0  0
    6.3576    0.6584   -0.7173 C   0  0  0  0  0  0  0  0  0  0  0  0
    4.9759    0.8579   -0.6161 C   0  0  0  0  0  0  0  0  0  0  0  0
    7.1455    1.5216   -1.5431 C   0  0  0  0  0  0  0  0  0  0  0  0
    7.8036    2.2495   -2.2354 C   0  0  0  0  0  0  0  0  0  0  0  0
   -3.4066   -3.0658    1.1125 H   0  0  0  0  0  0  0  0  0  0  0  0
   -3.9175   -4.7575    1.1416 H   0  0  0  0  0  0  0  0  0  0  0  0
   -2.2684   -4.3665    0.6125 H   0  0  0  0  0  0  0  0  0  0  0  0
   -1.9397   -3.6222   -1.5858 H   0  0  0  0  0  0  0  0  0  0  0  0
   -3.3574   -3.3603   -2.6161 H   0  0  0  0  0  0  0  0  0  0  0  0
   -2.6326   -1.1683   -2.2359 H   0  0  0  0  0  0  0  0  0  0  0  0
   -3.9434   -1.3770   -1.0194 H   0  0  0  0  0  0  0  0  0  0  0  0
    0.4608   -1.0358   -0.0171 H   0  0  0  0  0  0  0  0  0  0  0  0
   -2.1020    3.1559   -0.5357 H   0  0  0  0  0  0  0  0  0  0  0  0
   -5.2046    1.8389    0.3778 H   0  0  0  0  0  0  0  0  0  0  0  0
   -3.7066    2.2976    1.1468 H   0  0  0  0  0  0  0  0  0  0  0  0
   -5.0375   -0.4779    1.1959 H   0  0  0  0  0  0  0  0  0  0  0  0
   -3.4996   -0.1673    1.9762 H   0  0  0  0  0  0  0  0  0  0  0  0
   -3.5208    0.7588    4.1127 H   0  0  0  0  0  0  0  0  0  0  0  0
   -4.9674    1.6320    4.6667 H   0  0  0  0  0  0  0  0  0  0  0  0
   -3.9655    2.3427    3.3883 H   0  0  0  0  0  0  0  0  0  0  0  0
    2.2037    4.5522   -0.1475 H   0  0  0  0  0  0  0  0  0  0  0  0
    2.4060   -0.3722    1.0572 H   0  0  0  0  0  0  0  0  0  0  0  0
    4.2282   -1.7224    1.4661 H   0  0  0  0  0  0  0  0  0  0  0  0
    6.6567   -2.0675    1.2879 H   0  0  0  0  0  0  0  0  0  0  0  0
    8.0374   -0.5536   -0.1022 H   0  0  0  0  0  0  0  0  0  0  0  0
    4.5192    1.6597   -1.1896 H   0  0  0  0  0  0  0  0  0  0  0  0
    8.3853    2.9003   -2.8460 H   0  0  0  0  0  0  0  0  0  0  0  0
  1  2  1  0
  2  3  1  0
  3  4  1  0
  4  5  1  0
  5  6  1  0
  6  7  2  0
  7  8  1  0
  8  9  2  0
  9 10  1  0
 10 11  2  0
 11 12  1  0
 12 13  1  0
 13 14  1  0
 14 15  1  0
 15 16  1  0
  9 17  1  0
 17 18  2  0
 18 19  1  0
 19 20  2  0
 20 21  1  0
 21 22  1  0
 22 23  2  0
 23 24  1  0
 24 25  2  0
 25 26  1  0
 26 27  2  0
 26 28  1  0
 28 29  3  0
 11  6  1  0
 20  8  1  0
 27 22  1  0
  1 30  1  0
  1 31  1  0
  1 32  1  0
  3 33  1  0
  3 34  1  0
  4 35  1  0
  4 36  1  0
  7 37  1  0
 10 38  1  0
 13 39  1  0
 13 40  1  0
 14 41  1  0
 14 42  1  0
 16 43  1  0
 16 44  1  0
 16 45  1  0
 18 46  1  0
 21 47  1  0
 23 48  1  0
 24 49  1  0
 25 50  1  0
 27 51  1  0
 29 52  1  0
M  END
>  <energy_abs>  (226) 
59.434243621390756

>  <SMILES>  (226) 
COCCOc1cc2c(cc1OCCOC)ncnc2Nc3cccc(c3)C#C

>  <cluster_no>  (226) 
226

>  <fda_drugs_id>  (226) 
AAKJLRGGTJKAMG-UHFFFAOYSA-N

>  <initial_conformation_id>  (226) 
72

>  <minimize_method>  (226) 
MMFF

$$$$

     RDKit          3D

 52 54  0  0  0  0  0  0  0  0999 V2000
   -0.3000   -4.0881   -3.4914 C   0  0  0  0  0  0  0  0  0  0  0  0
   -0.4412   -3.9048   -2.0885 O   0  0  0  0  0  0  0  0  0  0  0  0
   -1.2832   -2.7930   -1.7861 C   0  0  0  0  0  0  0  0  0  0  0  0
   -1.4535   -2.6863   -0.2728 C   0  0  0  0  0  0  0  0  0  0  0  0
   -2.2220   -1.5389    0.0808 O   0  0  0  0  0  0  0  0  0  0  0  0
   -1.5975   -0.3311    0.2540 C   0  0  0  0  0  0  0  0  0  0  0  0
   -0.2329   -0.1012    0.0728 C   0  0  0  0  0  0  0  0  0  0  0  0
    0.3272    1.1878    0.2707 C   0  0  0  0  0  0  0  0  0  0  0  0
   -0.5022    2.2403    0.6734 C   0  0  0  0  0  0  0  0  0  0  0  0
   -1.8595    2.0005    0.8476 C   0  0  0  0  0  0  0  0  0  0  0  0
   -2.4237    0.7381    0.6374 C   0  0  0  0  0  0  0  0  0  0  0  0
   -3.7532    0.4378    0.7917 O   0  0  0  0  0  0  0  0  0  0  0  0
   -4.6832    1.4812    1.0738 C   0  0  0  0  0  0  0  0  0  0  0  0
   -4.8290    1.7019    2.5797 C   0  0  0  0  0  0  0  0  0  0  0  0
   -5.7106    2.7846    2.8797 O   0  0  0  0  0  0  0  0  0  0  0  0
   -7.0825    2.4163    2.8265 C   0  0  0  0  0  0  0  0  0  0  0  0
   -0.0444    3.4739    0.8998 N   0  0  0  0  0  0  0  0  0  0  0  0
    1.2668    3.6703    0.7320 C   0  0  0  0  0  0  0  0  0  0  0  0
    2.1569    2.7537    0.3468 N   0  0  0  0  0  0  0  0  0  0  0  0
    1.6901    1.5157    0.1064 C   0  0  0  0  0  0  0  0  0  0  0  0
    2.5865    0.5077   -0.3434 N   0  0  0  0  0  0  0  0  0  0  0  0
    4.0004    0.5133   -0.3274 C   0  0  0  0  0  0  0  0  0  0  0  0
    4.7451    1.2151    0.6282 C   0  0  0  0  0  0  0  0  0  0  0  0
    6.1411    1.1403    0.6550 C   0  0  0  0  0  0  0  0  0  0  0  0
    6.8151    0.3371   -0.2619 C   0  0  0  0  0  0  0  0  0  0  0  0
    6.0909   -0.4004   -1.1969 C   0  0  0  0  0  0  0  0  0  0  0  0
    4.6937   -0.3214   -1.2193 C   0  0  0  0  0  0  0  0  0  0  0  0
    6.7747   -1.2440   -2.1289 C   0  0  0  0  0  0  0  0  0  0  0  0
    7.3490   -1.9521   -2.9105 C   0  0  0  0  0  0  0  0  0  0  0  0
    0.3564   -4.9455   -3.6622 H   0  0  0  0  0  0  0  0  0  0  0  0
   -1.2717   -4.2948   -3.9502 H   0  0  0  0  0  0  0  0  0  0  0  0
    0.1532   -3.2036   -3.9493 H   0  0  0  0  0  0  0  0  0  0  0  0
   -2.2651   -2.9219   -2.2575 H   0  0  0  0  0  0  0  0  0  0  0  0
   -0.8396   -1.8776   -2.1931 H   0  0  0  0  0  0  0  0  0  0  0  0
   -2.0162   -3.5631    0.0710 H   0  0  0  0  0  0  0  0  0  0  0  0
   -0.5019   -2.7452    0.2683 H   0  0  0  0  0  0  0  0  0  0  0  0
    0.4310   -0.9108   -0.2103 H   0  0  0  0  0  0  0  0  0  0  0  0
   -2.4642    2.8441    1.1664 H   0  0  0  0  0  0  0  0  0  0  0  0
   -4.4652    2.4085    0.5311 H   0  0  0  0  0  0  0  0  0  0  0  0
   -5.6459    1.1478    0.6702 H   0  0  0  0  0  0  0  0  0  0  0  0
   -3.8555    1.9545    3.0123 H   0  0  0  0  0  0  0  0  0  0  0  0
   -5.1503    0.7824    3.0844 H   0  0  0  0  0  0  0  0  0  0  0  0
   -7.2906    1.6046    3.5301 H   0  0  0  0  0  0  0  0  0  0  0  0
   -7.3698    2.1219    1.8137 H   0  0  0  0  0  0  0  0  0  0  0  0
   -7.6805    3.2854    3.1140 H   0  0  0  0  0  0  0  0  0  0  0  0
    1.6427    4.6694    0.9239 H   0  0  0  0  0  0  0  0  0  0  0  0
    2.2307    0.1160   -1.2091 H   0  0  0  0  0  0  0  0  0  0  0  0
    4.2460    1.8287    1.3736 H   0  0  0  0  0  0  0  0  0  0  0  0
    6.6976    1.7046    1.3986 H   0  0  0  0  0  0  0  0  0  0  0  0
    7.9003    0.2821   -0.2342 H   0  0  0  0  0  0  0  0  0  0  0  0
    4.1452   -0.9174   -1.9444 H   0  0  0  0  0  0  0  0  0  0  0  0
    7.8606   -2.5798   -3.6022 H   0  0  0  0  0  0  0  0  0  0  0  0
  1  2  1  0
  2  3  1  0
  3  4  1  0
  4  5  1  0
  5  6  1  0
  6  7  2  0
  7  8  1  0
  8  9  2  0
  9 10  1  0
 10 11  2  0
 11 12  1  0
 12 13  1  0
 13 14  1  0
 14 15  1  0
 15 16  1  0
  9 17  1  0
 17 18  2  0
 18 19  1  0
 19 20  2  0
 20 21  1  0
 21 22  1  0
 22 23  2  0
 23 24  1  0
 24 25  2  0
 25 26  1  0
 26 27  2  0
 26 28  1  0
 28 29  3  0
 11  6  1  0
 20  8  1  0
 27 22  1  0
  1 30  1  0
  1 31  1  0
  1 32  1  0
  3 33  1  0
  3 34  1  0
  4 35  1  0
  4 36  1  0
  7 37  1  0
 10 38  1  0
 13 39  1  0
 13 40  1  0
 14 41  1  0
 14 42  1  0
 16 43  1  0
 16 44  1  0
 16 45  1  0
 18 46  1  0
 21 47  1  0
 23 48  1  0
 24 49  1  0
 25 50  1  0
 27 51  1  0
 29 52  1  0
M  END
>  <energy_abs>  (227) 
60.64117393854745

>  <SMILES>  (227) 
COCCOc1cc2c(cc1OCCOC)ncnc2Nc3cccc(c3)C#C

>  <cluster_no>  (227) 
227

>  <fda_drugs_id>  (227) 
AAKJLRGGTJKAMG-UHFFFAOYSA-N

>  <initial_conformation_id>  (227) 
71

>  <minimize_method>  (227) 
MMFF

$$$$

     RDKit          3D

 52 54  0  0  0  0  0  0  0  0999 V2000
   -3.2162   -5.5720   -1.0739 C   0  0  0  0  0  0  0  0  0  0  0  0
   -2.3699   -4.4281   -1.0410 O   0  0  0  0  0  0  0  0  0  0  0  0
   -3.0210   -3.2775   -1.5937 C   0  0  0  0  0  0  0  0  0  0  0  0
   -2.0843   -2.0740   -1.5151 C   0  0  0  0  0  0  0  0  0  0  0  0
   -1.9902   -1.6543   -0.1406 O   0  0  0  0  0  0  0  0  0  0  0  0
   -1.4249   -0.4075   -0.0661 C   0  0  0  0  0  0  0  0  0  0  0  0
   -0.0400   -0.3135    0.0382 C   0  0  0  0  0  0  0  0  0  0  0  0
    0.5778    0.9505    0.1795 C   0  0  0  0  0  0  0  0  0  0  0  0
   -0.2216    2.1048    0.2141 C   0  0  0  0  0  0  0  0  0  0  0  0
   -1.6063    1.9782    0.1255 C   0  0  0  0  0  0  0  0  0  0  0  0
   -2.2282    0.7345   -0.0009 C   0  0  0  0  0  0  0  0  0  0  0  0
   -3.5774    0.5306   -0.1055 O   0  0  0  0  0  0  0  0  0  0  0  0
   -4.4615    1.5351    0.3913 C   0  0  0  0  0  0  0  0  0  0  0  0
   -4.5295    1.5306    1.9176 C   0  0  0  0  0  0  0  0  0  0  0  0
   -5.4974    2.4882    2.3479 O   0  0  0  0  0  0  0  0  0  0  0  0
   -5.6071    2.5168    3.7662 C   0  0  0  0  0  0  0  0  0  0  0  0
    0.2924    3.3321    0.3304 N   0  0  0  0  0  0  0  0  0  0  0  0
    1.6249    3.4210    0.4056 C   0  0  0  0  0  0  0  0  0  0  0  0
    2.4873    2.4001    0.3866 N   0  0  0  0  0  0  0  0  0  0  0  0
    1.9671    1.1641    0.2824 C   0  0  0  0  0  0  0  0  0  0  0  0
    2.8352    0.0385    0.2890 N   0  0  0  0  0  0  0  0  0  0  0  0
    4.2383    0.0120    0.1121 C   0  0  0  0  0  0  0  0  0  0  0  0
    4.9699   -1.0619    0.6434 C   0  0  0  0  0  0  0  0  0  0  0  0
    6.3486   -1.1698    0.4383 C   0  0  0  0  0  0  0  0  0  0  0  0
    7.0148   -0.2158   -0.3277 C   0  0  0  0  0  0  0  0  0  0  0  0
    6.2996    0.8379   -0.8951 C   0  0  0  0  0  0  0  0  0  0  0  0
    4.9198    0.9426   -0.6837 C   0  0  0  0  0  0  0  0  0  0  0  0
    6.9757    1.8028   -1.7063 C   0  0  0  0  0  0  0  0  0  0  0  0
    7.5430    2.6088   -2.3892 C   0  0  0  0  0  0  0  0  0  0  0  0
   -3.4331   -5.8526   -2.1117 H   0  0  0  0  0  0  0  0  0  0  0  0
   -4.1508   -5.3837   -0.5287 H   0  0  0  0  0  0  0  0  0  0  0  0
   -2.6909   -6.4016   -0.5879 H   0  0  0  0  0  0  0  0  0  0  0  0
   -3.9378   -3.0781   -1.0278 H   0  0  0  0  0  0  0  0  0  0  0  0
   -3.2707   -3.4820   -2.6406 H   0  0  0  0  0  0  0  0  0  0  0  0
   -1.0848   -2.3528   -1.8701 H   0  0  0  0  0  0  0  0  0  0  0  0
   -2.4868   -1.2689   -2.1386 H   0  0  0  0  0  0  0  0  0  0  0  0
    0.5505   -1.2268   -0.0014 H   0  0  0  0  0  0  0  0  0  0  0  0
   -2.1849    2.8985    0.1512 H   0  0  0  0  0  0  0  0  0  0  0  0
   -5.4586    1.2926    0.0030 H   0  0  0  0  0  0  0  0  0  0  0  0
   -4.2452    2.5286   -0.0165 H   0  0  0  0  0  0  0  0  0  0  0  0
   -3.5529    1.7764    2.3490 H   0  0  0  0  0  0  0  0  0  0  0  0
   -4.8081    0.5306    2.2709 H   0  0  0  0  0  0  0  0  0  0  0  0
   -4.6574    2.8232    4.2161 H   0  0  0  0  0  0  0  0  0  0  0  0
   -6.3742    3.2476    4.0372 H   0  0  0  0  0  0  0  0  0  0  0  0
   -5.9079    1.5357    4.1474 H   0  0  0  0  0  0  0  0  0  0  0  0
    2.0457    4.4179    0.4927 H   0  0  0  0  0  0  0  0  0  0  0  0
    2.5407   -0.5948    1.0253 H   0  0  0  0  0  0  0  0  0  0  0  0
    4.4714   -1.8292    1.2304 H   0  0  0  0  0  0  0  0  0  0  0  0
    6.8998   -2.0013    0.8691 H   0  0  0  0  0  0  0  0  0  0  0  0
    8.0860   -0.3057   -0.4897 H   0  0  0  0  0  0  0  0  0  0  0  0
    4.3739    1.7548   -1.1566 H   0  0  0  0  0  0  0  0  0  0  0  0
    8.0451    3.3229   -2.9964 H   0  0  0  0  0  0  0  0  0  0  0  0
  1  2  1  0
  2  3  1  0
  3  4  1  0
  4  5  1  0
  5  6  1  0
  6  7  2  0
  7  8  1  0
  8  9  2  0
  9 10  1  0
 10 11  2  0
 11 12  1  0
 12 13  1  0
 13 14  1  0
 14 15  1  0
 15 16  1  0
  9 17  1  0
 17 18  2  0
 18 19  1  0
 19 20  2  0
 20 21  1  0
 21 22  1  0
 22 23  2  0
 23 24  1  0
 24 25  2  0
 25 26  1  0
 26 27  2  0
 26 28  1  0
 28 29  3  0
 11  6  1  0
 20  8  1  0
 27 22  1  0
  1 30  1  0
  1 31  1  0
  1 32  1  0
  3 33  1  0
  3 34  1  0
  4 35  1  0
  4 36  1  0
  7 37  1  0
 10 38  1  0
 13 39  1  0
 13 40  1  0
 14 41  1  0
 14 42  1  0
 16 43  1  0
 16 44  1  0
 16 45  1  0
 18 46  1  0
 21 47  1  0
 23 48  1  0
 24 49  1  0
 25 50  1  0
 27 51  1  0
 29 52  1  0
M  END
>  <energy_abs>  (228) 
58.241842560065145

>  <SMILES>  (228) 
COCCOc1cc2c(cc1OCCOC)ncnc2Nc3cccc(c3)C#C

>  <cluster_no>  (228) 
228

>  <fda_drugs_id>  (228) 
AAKJLRGGTJKAMG-UHFFFAOYSA-N

>  <initial_conformation_id>  (228) 
70

>  <minimize_method>  (228) 
MMFF

$$$$

     RDKit          3D

 52 54  0  0  0  0  0  0  0  0999 V2000
   -2.2858   -5.7606   -2.1969 C   0  0  0  0  0  0  0  0  0  0  0  0
   -1.4839   -4.6276   -1.8907 O   0  0  0  0  0  0  0  0  0  0  0  0
   -2.2452   -3.6062   -1.2461 C   0  0  0  0  0  0  0  0  0  0  0  0
   -1.3326   -2.4302   -0.9141 C   0  0  0  0  0  0  0  0  0  0  0  0
   -2.1003   -1.4408   -0.2300 O   0  0  0  0  0  0  0  0  0  0  0  0
   -1.4886   -0.2475    0.0421 C   0  0  0  0  0  0  0  0  0  0  0  0
   -0.1211    0.0026   -0.0597 C   0  0  0  0  0  0  0  0  0  0  0  0
    0.4203    1.2796    0.2639 C   0  0  0  0  0  0  0  0  0  0  0  0
   -0.4368    2.3126    0.6726 C   0  0  0  0  0  0  0  0  0  0  0  0
   -1.7943    2.0529    0.7692 C   0  0  0  0  0  0  0  0  0  0  0  0
   -2.3141    0.7886    0.4798 C   0  0  0  0  0  0  0  0  0  0  0  0
   -3.6703    0.6030    0.5447 O   0  0  0  0  0  0  0  0  0  0  0  0
   -4.1060    0.3861    1.8993 C   0  0  0  0  0  0  0  0  0  0  0  0
   -5.3826    1.1936    2.1297 C   0  0  0  0  0  0  0  0  0  0  0  0
   -5.0376    2.5725    2.3089 O   0  0  0  0  0  0  0  0  0  0  0  0
   -6.1895    3.3942    2.4079 C   0  0  0  0  0  0  0  0  0  0  0  0
   -0.0015    3.5386    0.9736 N   0  0  0  0  0  0  0  0  0  0  0  0
    1.3122    3.7546    0.8615 C   0  0  0  0  0  0  0  0  0  0  0  0
    2.2286    2.8585    0.4887 N   0  0  0  0  0  0  0  0  0  0  0  0
    1.7882    1.6207    0.1977 C   0  0  0  0  0  0  0  0  0  0  0  0
    2.7303    0.6166   -0.1666 N   0  0  0  0  0  0  0  0  0  0  0  0
    4.0805    0.7875   -0.5527 C   0  0  0  0  0  0  0  0  0  0  0  0
    4.5338    1.9289   -1.2260 C   0  0  0  0  0  0  0  0  0  0  0  0
    5.8611    2.0396   -1.6506 C   0  0  0  0  0  0  0  0  0  0  0  0
    6.7531    0.9931   -1.4297 C   0  0  0  0  0  0  0  0  0  0  0  0
    6.3129   -0.1679   -0.7953 C   0  0  0  0  0  0  0  0  0  0  0  0
    4.9824   -0.2736   -0.3736 C   0  0  0  0  0  0  0  0  0  0  0  0
    7.2206   -1.2533   -0.5797 C   0  0  0  0  0  0  0  0  0  0  0  0
    7.9850   -2.1617   -0.3984 C   0  0  0  0  0  0  0  0  0  0  0  0
   -3.0984   -5.4823   -2.8790 H   0  0  0  0  0  0  0  0  0  0  0  0
   -1.6537   -6.5091   -2.6886 H   0  0  0  0  0  0  0  0  0  0  0  0
   -2.6956   -6.1979   -1.2787 H   0  0  0  0  0  0  0  0  0  0  0  0
   -3.0585   -3.2734   -1.9019 H   0  0  0  0  0  0  0  0  0  0  0  0
   -2.6958   -3.9976   -0.3265 H   0  0  0  0  0  0  0  0  0  0  0  0
   -0.9133   -2.0264   -1.8445 H   0  0  0  0  0  0  0  0  0  0  0  0
   -0.5094   -2.7843   -0.2807 H   0  0  0  0  0  0  0  0  0  0  0  0
    0.5544   -0.7759   -0.4015 H   0  0  0  0  0  0  0  0  0  0  0  0
   -2.4698    2.8503    1.0746 H   0  0  0  0  0  0  0  0  0  0  0  0
   -4.3207   -0.6839    2.0024 H   0  0  0  0  0  0  0  0  0  0  0  0
   -3.3433    0.6650    2.6385 H   0  0  0  0  0  0  0  0  0  0  0  0
   -6.0529    1.0939    1.2690 H   0  0  0  0  0  0  0  0  0  0  0  0
   -5.8895    0.8412    3.0353 H   0  0  0  0  0  0  0  0  0  0  0  0
   -6.7996    3.0947    3.2653 H   0  0  0  0  0  0  0  0  0  0  0  0
   -5.8649    4.4282    2.5551 H   0  0  0  0  0  0  0  0  0  0  0  0
   -6.7806    3.3439    1.4900 H   0  0  0  0  0  0  0  0  0  0  0  0
    1.6685    4.7515    1.0987 H   0  0  0  0  0  0  0  0  0  0  0  0
    2.6238   -0.1723    0.4634 H   0  0  0  0  0  0  0  0  0  0  0  0
    3.8540    2.7519   -1.4335 H   0  0  0  0  0  0  0  0  0  0  0  0
    6.1916    2.9422   -2.1571 H   0  0  0  0  0  0  0  0  0  0  0  0
    7.7838    1.0852   -1.7621 H   0  0  0  0  0  0  0  0  0  0  0  0
    4.6537   -1.1931    0.1042 H   0  0  0  0  0  0  0  0  0  0  0  0
    8.6655   -2.9653   -0.2381 H   0  0  0  0  0  0  0  0  0  0  0  0
  1  2  1  0
  2  3  1  0
  3  4  1  0
  4  5  1  0
  5  6  1  0
  6  7  2  0
  7  8  1  0
  8  9  2  0
  9 10  1  0
 10 11  2  0
 11 12  1  0
 12 13  1  0
 13 14  1  0
 14 15  1  0
 15 16  1  0
  9 17  1  0
 17 18  2  0
 18 19  1  0
 19 20  2  0
 20 21  1  0
 21 22  1  0
 22 23  2  0
 23 24  1  0
 24 25  2  0
 25 26  1  0
 26 27  2  0
 26 28  1  0
 28 29  3  0
 11  6  1  0
 20  8  1  0
 27 22  1  0
  1 30  1  0
  1 31  1  0
  1 32  1  0
  3 33  1  0
  3 34  1  0
  4 35  1  0
  4 36  1  0
  7 37  1  0
 10 38  1  0
 13 39  1  0
 13 40  1  0
 14 41  1  0
 14 42  1  0
 16 43  1  0
 16 44  1  0
 16 45  1  0
 18 46  1  0
 21 47  1  0
 23 48  1  0
 24 49  1  0
 25 50  1  0
 27 51  1  0
 29 52  1  0
M  END
>  <energy_abs>  (229) 
57.502002694391535

>  <SMILES>  (229) 
COCCOc1cc2c(cc1OCCOC)ncnc2Nc3cccc(c3)C#C

>  <cluster_no>  (229) 
229

>  <fda_drugs_id>  (229) 
AAKJLRGGTJKAMG-UHFFFAOYSA-N

>  <initial_conformation_id>  (229) 
69

>  <minimize_method>  (229) 
MMFF

$$$$

     RDKit          3D

 52 54  0  0  0  0  0  0  0  0999 V2000
   -2.1141   -5.8587   -2.1029 C   0  0  0  0  0  0  0  0  0  0  0  0
   -1.3275   -4.7275   -1.7513 O   0  0  0  0  0  0  0  0  0  0  0  0
   -2.1146   -3.7231   -1.1114 C   0  0  0  0  0  0  0  0  0  0  0  0
   -1.2255   -2.5342   -0.7611 C   0  0  0  0  0  0  0  0  0  0  0  0
   -2.0234   -1.5471   -0.1130 O   0  0  0  0  0  0  0  0  0  0  0  0
   -1.4092   -0.3981    0.3138 C   0  0  0  0  0  0  0  0  0  0  0  0
   -0.0564   -0.1059    0.1320 C   0  0  0  0  0  0  0  0  0  0  0  0
    0.4998    1.1108    0.6048 C   0  0  0  0  0  0  0  0  0  0  0  0
   -0.3290    2.0400    1.2437 C   0  0  0  0  0  0  0  0  0  0  0  0
   -1.6732    1.7361    1.4201 C   0  0  0  0  0  0  0  0  0  0  0  0
   -2.2280    0.5327    0.9727 C   0  0  0  0  0  0  0  0  0  0  0  0
   -3.5452    0.1756    1.1110 O   0  0  0  0  0  0  0  0  0  0  0  0
   -4.4291    1.0208    1.8441 C   0  0  0  0  0  0  0  0  0  0  0  0
   -5.0616    2.0775    0.9425 C   0  0  0  0  0  0  0  0  0  0  0  0
   -5.9333    2.8985    1.7196 O   0  0  0  0  0  0  0  0  0  0  0  0
   -6.5571    3.8974    0.9231 C   0  0  0  0  0  0  0  0  0  0  0  0
    0.1166    3.2160    1.6923 N   0  0  0  0  0  0  0  0  0  0  0  0
    1.4123    3.4822    1.5000 C   0  0  0  0  0  0  0  0  0  0  0  0
    2.3021    2.6798    0.9125 N   0  0  0  0  0  0  0  0  0  0  0  0
    1.8525    1.4905    0.4742 C   0  0  0  0  0  0  0  0  0  0  0  0
    2.7649    0.5762   -0.1208 N   0  0  0  0  0  0  0  0  0  0  0  0
    4.0747    0.8215   -0.5937 C   0  0  0  0  0  0  0  0  0  0  0  0
    4.4779    2.0641   -1.0977 C   0  0  0  0  0  0  0  0  0  0  0  0
    5.7605    2.2502   -1.6223 C   0  0  0  0  0  0  0  0  0  0  0  0
    6.6548    1.1836   -1.6750 C   0  0  0  0  0  0  0  0  0  0  0  0
    6.2607   -0.0713   -1.2140 C   0  0  0  0  0  0  0  0  0  0  0  0
    4.9757   -0.2517   -0.6895 C   0  0  0  0  0  0  0  0  0  0  0  0
    7.1667   -1.1769   -1.2832 C   0  0  0  0  0  0  0  0  0  0  0  0
    7.9269   -2.1046   -1.3411 C   0  0  0  0  0  0  0  0  0  0  0  0
   -2.5517   -6.3137   -1.2090 H   0  0  0  0  0  0  0  0  0  0  0  0
   -2.9027   -5.5733   -2.8059 H   0  0  0  0  0  0  0  0  0  0  0  0
   -1.4642   -6.5930   -2.5862 H   0  0  0  0  0  0  0  0  0  0  0  0
   -2.5713   -4.1278   -0.2002 H   0  0  0  0  0  0  0  0  0  0  0  0
   -2.9245   -3.3991   -1.7762 H   0  0  0  0  0  0  0  0  0  0  0  0
   -0.7855   -2.1326   -1.6823 H   0  0  0  0  0  0  0  0  0  0  0  0
   -0.4171   -2.8744   -0.1019 H   0  0  0  0  0  0  0  0  0  0  0  0
    0.5897   -0.8006   -0.3946 H   0  0  0  0  0  0  0  0  0  0  0  0
   -2.2788    2.4866    1.9188 H   0  0  0  0  0  0  0  0  0  0  0  0
   -3.9644    1.4505    2.7394 H   0  0  0  0  0  0  0  0  0  0  0  0
   -5.2291    0.3789    2.2336 H   0  0  0  0  0  0  0  0  0  0  0  0
   -5.6246    1.5872    0.1391 H   0  0  0  0  0  0  0  0  0  0  0  0
   -4.2904    2.6984    0.4735 H   0  0  0  0  0  0  0  0  0  0  0  0
   -7.1640    3.4372    0.1374 H   0  0  0  0  0  0  0  0  0  0  0  0
   -5.8059    4.5590    0.4810 H   0  0  0  0  0  0  0  0  0  0  0  0
   -7.2110    4.4920    1.5665 H   0  0  0  0  0  0  0  0  0  0  0  0
    1.7758    4.4395    1.8575 H   0  0  0  0  0  0  0  0  0  0  0  0
    2.7144   -0.3049    0.3805 H   0  0  0  0  0  0  0  0  0  0  0  0
    3.7930    2.9080   -1.0941 H   0  0  0  0  0  0  0  0  0  0  0  0
    6.0545    3.2277   -1.9955 H   0  0  0  0  0  0  0  0  0  0  0  0
    7.6499    1.3348   -2.0855 H   0  0  0  0  0  0  0  0  0  0  0  0
    4.6808   -1.2415   -0.3500 H   0  0  0  0  0  0  0  0  0  0  0  0
    8.6022   -2.9266   -1.3932 H   0  0  0  0  0  0  0  0  0  0  0  0
  1  2  1  0
  2  3  1  0
  3  4  1  0
  4  5  1  0
  5  6  1  0
  6  7  2  0
  7  8  1  0
  8  9  2  0
  9 10  1  0
 10 11  2  0
 11 12  1  0
 12 13  1  0
 13 14  1  0
 14 15  1  0
 15 16  1  0
  9 17  1  0
 17 18  2  0
 18 19  1  0
 19 20  2  0
 20 21  1  0
 21 22  1  0
 22 23  2  0
 23 24  1  0
 24 25  2  0
 25 26  1  0
 26 27  2  0
 26 28  1  0
 28 29  3  0
 11  6  1  0
 20  8  1  0
 27 22  1  0
  1 30  1  0
  1 31  1  0
  1 32  1  0
  3 33  1  0
  3 34  1  0
  4 35  1  0
  4 36  1  0
  7 37  1  0
 10 38  1  0
 13 39  1  0
 13 40  1  0
 14 41  1  0
 14 42  1  0
 16 43  1  0
 16 44  1  0
 16 45  1  0
 18 46  1  0
 21 47  1  0
 23 48  1  0
 24 49  1  0
 25 50  1  0
 27 51  1  0
 29 52  1  0
M  END
>  <energy_abs>  (230) 
56.67889571347953

>  <SMILES>  (230) 
COCCOc1cc2c(cc1OCCOC)ncnc2Nc3cccc(c3)C#C

>  <cluster_no>  (230) 
230

>  <fda_drugs_id>  (230) 
AAKJLRGGTJKAMG-UHFFFAOYSA-N

>  <initial_conformation_id>  (230) 
68

>  <minimize_method>  (230) 
MMFF

$$$$

     RDKit          3D

 52 54  0  0  0  0  0  0  0  0999 V2000
   -3.1439   -3.1577   -2.7344 C   0  0  0  0  0  0  0  0  0  0  0  0
   -3.5739   -3.4311   -1.4006 O   0  0  0  0  0  0  0  0  0  0  0  0
   -3.4037   -2.3248   -0.5160 C   0  0  0  0  0  0  0  0  0  0  0  0
   -2.0015   -2.3170    0.0932 C   0  0  0  0  0  0  0  0  0  0  0  0
   -1.9116   -1.3320    1.1291 O   0  0  0  0  0  0  0  0  0  0  0  0
   -1.3194   -0.1778    0.7032 C   0  0  0  0  0  0  0  0  0  0  0  0
    0.0663   -0.1229    0.5543 C   0  0  0  0  0  0  0  0  0  0  0  0
    0.7121    1.0889    0.1839 C   0  0  0  0  0  0  0  0  0  0  0  0
   -0.0666    2.2307   -0.0605 C   0  0  0  0  0  0  0  0  0  0  0  0
   -1.4444    2.1528    0.0994 C   0  0  0  0  0  0  0  0  0  0  0  0
   -2.0739    0.9753    0.5143 C   0  0  0  0  0  0  0  0  0  0  0  0
   -3.4348    1.0149    0.6697 O   0  0  0  0  0  0  0  0  0  0  0  0
   -3.8069    0.8084    2.0455 C   0  0  0  0  0  0  0  0  0  0  0  0
   -5.1106    1.5526    2.3282 C   0  0  0  0  0  0  0  0  0  0  0  0
   -6.2741    0.7618    2.0486 O   0  0  0  0  0  0  0  0  0  0  0  0
   -6.5341    0.6103    0.6551 C   0  0  0  0  0  0  0  0  0  0  0  0
    0.4616    3.4023   -0.4295 N   0  0  0  0  0  0  0  0  0  0  0  0
    1.7907    3.4487   -0.5603 C   0  0  0  0  0  0  0  0  0  0  0  0
    2.6369    2.4392   -0.3460 N   0  0  0  0  0  0  0  0  0  0  0  0
    2.1067    1.2591    0.0320 C   0  0  0  0  0  0  0  0  0  0  0  0
    2.9528    0.1410    0.2731 N   0  0  0  0  0  0  0  0  0  0  0  0
    4.3441   -0.0290    0.0650 C   0  0  0  0  0  0  0  0  0  0  0  0
    4.9420   -1.2043    0.5743 C   0  0  0  0  0  0  0  0  0  0  0  0
    6.2949   -1.4893    0.3630 C   0  0  0  0  0  0  0  0  0  0  0  0
    7.0758   -0.6076   -0.3736 C   0  0  0  0  0  0  0  0  0  0  0  0
    6.4970    0.5489   -0.9136 C   0  0  0  0  0  0  0  0  0  0  0  0
    5.1352    0.8174   -0.7156 C   0  0  0  0  0  0  0  0  0  0  0  0
    7.3042    1.4621   -1.6692 C   0  0  0  0  0  0  0  0  0  0  0  0
    7.9978    2.2336   -2.2834 C   0  0  0  0  0  0  0  0  0  0  0  0
   -2.0845   -2.8737   -2.7661 H   0  0  0  0  0  0  0  0  0  0  0  0
   -3.2786   -4.0656   -3.3276 H   0  0  0  0  0  0  0  0  0  0  0  0
   -3.7591   -2.3650   -3.1844 H   0  0  0  0  0  0  0  0  0  0  0  0
   -4.1359   -2.4412    0.2921 H   0  0  0  0  0  0  0  0  0  0  0  0
   -3.6382   -1.3811   -1.0145 H   0  0  0  0  0  0  0  0  0  0  0  0
   -1.2250   -2.2036   -0.6756 H   0  0  0  0  0  0  0  0  0  0  0  0
   -1.8149   -3.2929    0.5639 H   0  0  0  0  0  0  0  0  0  0  0  0
    0.6451   -1.0238    0.7340 H   0  0  0  0  0  0  0  0  0  0  0  0
   -2.0424    3.0419   -0.0781 H   0  0  0  0  0  0  0  0  0  0  0  0
   -3.0336    1.2056    2.7164 H   0  0  0  0  0  0  0  0  0  0  0  0
   -3.9423   -0.2618    2.2287 H   0  0  0  0  0  0  0  0  0  0  0  0
   -5.1658    2.5051    1.7861 H   0  0  0  0  0  0  0  0  0  0  0  0
   -5.1616    1.7746    3.4028 H   0  0  0  0  0  0  0  0  0  0  0  0
   -5.7868   -0.0347    0.1929 H   0  0  0  0  0  0  0  0  0  0  0  0
   -6.5735    1.5795    0.1550 H   0  0  0  0  0  0  0  0  0  0  0  0
   -7.5097    0.1260    0.5440 H   0  0  0  0  0  0  0  0  0  0  0  0
    2.2239    4.3959   -0.8701 H   0  0  0  0  0  0  0  0  0  0  0  0
    2.6879   -0.2968    1.1530 H   0  0  0  0  0  0  0  0  0  0  0  0
    4.3518   -1.9204    1.1471 H   0  0  0  0  0  0  0  0  0  0  0  0
    6.7361   -2.4019    0.7692 H   0  0  0  0  0  0  0  0  0  0  0  0
    8.1314   -0.8268   -0.5274 H   0  0  0  0  0  0  0  0  0  0  0  0
    4.7172    1.7077   -1.1525 H   0  0  0  0  0  0  0  0  0  0  0  0
    8.6189    2.9191   -2.8205 H   0  0  0  0  0  0  0  0  0  0  0  0
  1  2  1  0
  2  3  1  0
  3  4  1  0
  4  5  1  0
  5  6  1  0
  6  7  2  0
  7  8  1  0
  8  9  2  0
  9 10  1  0
 10 11  2  0
 11 12  1  0
 12 13  1  0
 13 14  1  0
 14 15  1  0
 15 16  1  0
  9 17  1  0
 17 18  2  0
 18 19  1  0
 19 20  2  0
 20 21  1  0
 21 22  1  0
 22 23  2  0
 23 24  1  0
 24 25  2  0
 25 26  1  0
 26 27  2  0
 26 28  1  0
 28 29  3  0
 11  6  1  0
 20  8  1  0
 27 22  1  0
  1 30  1  0
  1 31  1  0
  1 32  1  0
  3 33  1  0
  3 34  1  0
  4 35  1  0
  4 36  1  0
  7 37  1  0
 10 38  1  0
 13 39  1  0
 13 40  1  0
 14 41  1  0
 14 42  1  0
 16 43  1  0
 16 44  1  0
 16 45  1  0
 18 46  1  0
 21 47  1  0
 23 48  1  0
 24 49  1  0
 25 50  1  0
 27 51  1  0
 29 52  1  0
M  END
>  <energy_abs>  (231) 
61.04508859071025

>  <SMILES>  (231) 
COCCOc1cc2c(cc1OCCOC)ncnc2Nc3cccc(c3)C#C

>  <cluster_no>  (231) 
231

>  <fda_drugs_id>  (231) 
AAKJLRGGTJKAMG-UHFFFAOYSA-N

>  <initial_conformation_id>  (231) 
67

>  <minimize_method>  (231) 
MMFF

$$$$

     RDKit          3D

 52 54  0  0  0  0  0  0  0  0999 V2000
   -3.9107   -5.1561   -0.8274 C   0  0  0  0  0  0  0  0  0  0  0  0
   -2.9264   -4.1400   -0.9613 O   0  0  0  0  0  0  0  0  0  0  0  0
   -2.2402   -3.9038    0.2729 C   0  0  0  0  0  0  0  0  0  0  0  0
   -1.2747   -2.7309    0.1006 C   0  0  0  0  0  0  0  0  0  0  0  0
   -2.0243   -1.5126    0.1409 O   0  0  0  0  0  0  0  0  0  0  0  0
   -1.3262   -0.3330    0.1400 C   0  0  0  0  0  0  0  0  0  0  0  0
    0.0243   -0.2142   -0.1906 C   0  0  0  0  0  0  0  0  0  0  0  0
    0.6721    1.0480   -0.1789 C   0  0  0  0  0  0  0  0  0  0  0  0
   -0.0523    2.1881    0.1879 C   0  0  0  0  0  0  0  0  0  0  0  0
   -1.3989    2.0577    0.5033 C   0  0  0  0  0  0  0  0  0  0  0  0
   -2.0505    0.8199    0.4778 C   0  0  0  0  0  0  0  0  0  0  0  0
   -3.3744    0.6307    0.7847 O   0  0  0  0  0  0  0  0  0  0  0  0
   -4.1727    1.7839    1.0421 C   0  0  0  0  0  0  0  0  0  0  0  0
   -5.6166    1.3314    1.2579 C   0  0  0  0  0  0  0  0  0  0  0  0
   -6.4964    2.4314    1.4935 O   0  0  0  0  0  0  0  0  0  0  0  0
   -6.4881    2.8689    2.8458 C   0  0  0  0  0  0  0  0  0  0  0  0
    0.4970    3.4039    0.2482 N   0  0  0  0  0  0  0  0  0  0  0  0
    1.7952    3.4937   -0.0576 C   0  0  0  0  0  0  0  0  0  0  0  0
    2.5879    2.4867   -0.4298 N   0  0  0  0  0  0  0  0  0  0  0  0
    2.0274    1.2667   -0.5026 C   0  0  0  0  0  0  0  0  0  0  0  0
    2.8119    0.1644   -0.9422 N   0  0  0  0  0  0  0  0  0  0  0  0
    4.2191    0.0829   -1.0583 C   0  0  0  0  0  0  0  0  0  0  0  0
    4.7743   -0.8444   -1.9549 C   0  0  0  0  0  0  0  0  0  0  0  0
    6.1580   -1.0106   -2.0583 C   0  0  0  0  0  0  0  0  0  0  0  0
    7.0101   -0.2677   -1.2446 C   0  0  0  0  0  0  0  0  0  0  0  0
    6.4768    0.6307   -0.3209 C   0  0  0  0  0  0  0  0  0  0  0  0
    5.0902    0.7930   -0.2220 C   0  0  0  0  0  0  0  0  0  0  0  0
    7.3482    1.3787    0.5331 C   0  0  0  0  0  0  0  0  0  0  0  0
    8.0787    2.0070    1.2499 C   0  0  0  0  0  0  0  0  0  0  0  0
   -4.3881   -5.3036   -1.7998 H   0  0  0  0  0  0  0  0  0  0  0  0
   -4.6757   -4.8553   -0.1051 H   0  0  0  0  0  0  0  0  0  0  0  0
   -3.4490   -6.0985   -0.5175 H   0  0  0  0  0  0  0  0  0  0  0  0
   -2.9695   -3.6845    1.0611 H   0  0  0  0  0  0  0  0  0  0  0  0
   -1.6767   -4.8069    0.5318 H   0  0  0  0  0  0  0  0  0  0  0  0
   -0.7611   -2.8183   -0.8635 H   0  0  0  0  0  0  0  0  0  0  0  0
   -0.5545   -2.7417    0.9269 H   0  0  0  0  0  0  0  0  0  0  0  0
    0.6027   -1.0924   -0.4563 H   0  0  0  0  0  0  0  0  0  0  0  0
   -1.9276    2.9655    0.7774 H   0  0  0  0  0  0  0  0  0  0  0  0
   -4.1413    2.4797    0.1945 H   0  0  0  0  0  0  0  0  0  0  0  0
   -3.8080    2.2996    1.9372 H   0  0  0  0  0  0  0  0  0  0  0  0
   -5.9666    0.8226    0.3523 H   0  0  0  0  0  0  0  0  0  0  0  0
   -5.6866    0.5922    2.0656 H   0  0  0  0  0  0  0  0  0  0  0  0
   -6.7888    2.0564    3.5143 H   0  0  0  0  0  0  0  0  0  0  0  0
   -7.2101    3.6839    2.9455 H   0  0  0  0  0  0  0  0  0  0  0  0
   -5.5023    3.2463    3.1301 H   0  0  0  0  0  0  0  0  0  0  0  0
    2.2468    4.4783   -0.0015 H   0  0  0  0  0  0  0  0  0  0  0  0
    2.3519   -0.2563   -1.7436 H   0  0  0  0  0  0  0  0  0  0  0  0
    4.1313   -1.4474   -2.5912 H   0  0  0  0  0  0  0  0  0  0  0  0
    6.5693   -1.7226   -2.7690 H   0  0  0  0  0  0  0  0  0  0  0  0
    8.0860   -0.4001   -1.3266 H   0  0  0  0  0  0  0  0  0  0  0  0
    4.6925    1.4787    0.5217 H   0  0  0  0  0  0  0  0  0  0  0  0
    8.7243    2.5660    1.8861 H   0  0  0  0  0  0  0  0  0  0  0  0
  1  2  1  0
  2  3  1  0
  3  4  1  0
  4  5  1  0
  5  6  1  0
  6  7  2  0
  7  8  1  0
  8  9  2  0
  9 10  1  0
 10 11  2  0
 11 12  1  0
 12 13  1  0
 13 14  1  0
 14 15  1  0
 15 16  1  0
  9 17  1  0
 17 18  2  0
 18 19  1  0
 19 20  2  0
 20 21  1  0
 21 22  1  0
 22 23  2  0
 23 24  1  0
 24 25  2  0
 25 26  1  0
 26 27  2  0
 26 28  1  0
 28 29  3  0
 11  6  1  0
 20  8  1  0
 27 22  1  0
  1 30  1  0
  1 31  1  0
  1 32  1  0
  3 33  1  0
  3 34  1  0
  4 35  1  0
  4 36  1  0
  7 37  1  0
 10 38  1  0
 13 39  1  0
 13 40  1  0
 14 41  1  0
 14 42  1  0
 16 43  1  0
 16 44  1  0
 16 45  1  0
 18 46  1  0
 21 47  1  0
 23 48  1  0
 24 49  1  0
 25 50  1  0
 27 51  1  0
 29 52  1  0
M  END
>  <energy_abs>  (232) 
58.95052117412365

>  <SMILES>  (232) 
COCCOc1cc2c(cc1OCCOC)ncnc2Nc3cccc(c3)C#C

>  <cluster_no>  (232) 
232

>  <fda_drugs_id>  (232) 
AAKJLRGGTJKAMG-UHFFFAOYSA-N

>  <initial_conformation_id>  (232) 
66

>  <minimize_method>  (232) 
MMFF

$$$$

     RDKit          3D

 52 54  0  0  0  0  0  0  0  0999 V2000
   -0.9872   -5.5735   -1.1619 C   0  0  0  0  0  0  0  0  0  0  0  0
   -1.1957   -5.2016    0.1944 O   0  0  0  0  0  0  0  0  0  0  0  0
   -2.0019   -4.0309    0.3314 C   0  0  0  0  0  0  0  0  0  0  0  0
   -1.1736   -2.7528    0.2060 C   0  0  0  0  0  0  0  0  0  0  0  0
   -2.0375   -1.6340    0.3918 O   0  0  0  0  0  0  0  0  0  0  0  0
   -1.5045   -0.3779    0.2605 C   0  0  0  0  0  0  0  0  0  0  0  0
   -0.1450   -0.1058    0.0991 C   0  0  0  0  0  0  0  0  0  0  0  0
    0.3253    1.2275   -0.0204 C   0  0  0  0  0  0  0  0  0  0  0  0
   -0.5932    2.2829    0.0075 C   0  0  0  0  0  0  0  0  0  0  0  0
   -1.9426    1.9984    0.1738 C   0  0  0  0  0  0  0  0  0  0  0  0
   -2.4158    0.6889    0.3033 C   0  0  0  0  0  0  0  0  0  0  0  0
   -3.7321    0.3434    0.4753 O   0  0  0  0  0  0  0  0  0  0  0  0
   -4.7338    1.3587    0.4576 C   0  0  0  0  0  0  0  0  0  0  0  0
   -4.9323    1.9689    1.8456 C   0  0  0  0  0  0  0  0  0  0  0  0
   -5.9422    2.9783    1.8441 O   0  0  0  0  0  0  0  0  0  0  0  0
   -5.4539    4.2496    1.4359 C   0  0  0  0  0  0  0  0  0  0  0  0
   -0.2295    3.5614   -0.1178 N   0  0  0  0  0  0  0  0  0  0  0  0
    1.0750    3.8016   -0.2856 C   0  0  0  0  0  0  0  0  0  0  0  0
    2.0453    2.8863   -0.3248 N   0  0  0  0  0  0  0  0  0  0  0  0
    1.6762    1.6012   -0.1808 C   0  0  0  0  0  0  0  0  0  0  0  0
    2.6724    0.5864   -0.1664 N   0  0  0  0  0  0  0  0  0  0  0  0
    4.0245    0.6763   -0.5711 C   0  0  0  0  0  0  0  0  0  0  0  0
    4.4576    1.5505   -1.5755 C   0  0  0  0  0  0  0  0  0  0  0  0
    5.7897    1.5610   -2.0000 C   0  0  0  0  0  0  0  0  0  0  0  0
    6.7074    0.6741   -1.4419 C   0  0  0  0  0  0  0  0  0  0  0  0
    6.2886   -0.2308   -0.4681 C   0  0  0  0  0  0  0  0  0  0  0  0
    4.9540   -0.2366   -0.0464 C   0  0  0  0  0  0  0  0  0  0  0  0
    7.2207   -1.1590    0.0955 C   0  0  0  0  0  0  0  0  0  0  0  0
    8.0028   -1.9379    0.5683 C   0  0  0  0  0  0  0  0  0  0  0  0
   -0.4479   -4.7924   -1.7044 H   0  0  0  0  0  0  0  0  0  0  0  0
   -1.9423   -5.7837   -1.6528 H   0  0  0  0  0  0  0  0  0  0  0  0
   -0.3824   -6.4843   -1.1773 H   0  0  0  0  0  0  0  0  0  0  0  0
   -2.8358   -4.0387   -0.3814 H   0  0  0  0  0  0  0  0  0  0  0  0
   -2.4558   -4.0620    1.3286 H   0  0  0  0  0  0  0  0  0  0  0  0
   -0.3864   -2.7649    0.9697 H   0  0  0  0  0  0  0  0  0  0  0  0
   -0.7048   -2.7102   -0.7837 H   0  0  0  0  0  0  0  0  0  0  0  0
    0.5756   -0.9154    0.0502 H   0  0  0  0  0  0  0  0  0  0  0  0
   -2.6165    2.8481    0.2006 H   0  0  0  0  0  0  0  0  0  0  0  0
   -4.5576    2.1033   -0.3261 H   0  0  0  0  0  0  0  0  0  0  0  0
   -5.6719    0.8723    0.1627 H   0  0  0  0  0  0  0  0  0  0  0  0
   -3.9973    2.3572    2.2655 H   0  0  0  0  0  0  0  0  0  0  0  0
   -5.2611    1.1792    2.5310 H   0  0  0  0  0  0  0  0  0  0  0  0
   -6.2805    4.9639    1.4810 H   0  0  0  0  0  0  0  0  0  0  0  0
   -4.6634    4.5911    2.1111 H   0  0  0  0  0  0  0  0  0  0  0  0
   -5.0825    4.2159    0.4082 H   0  0  0  0  0  0  0  0  0  0  0  0
    1.3740    4.8382   -0.3971 H   0  0  0  0  0  0  0  0  0  0  0  0
    2.5819    0.0564    0.6947 H   0  0  0  0  0  0  0  0  0  0  0  0
    3.7587    2.2358   -2.0479 H   0  0  0  0  0  0  0  0  0  0  0  0
    6.1049    2.2582   -2.7719 H   0  0  0  0  0  0  0  0  0  0  0  0
    7.7412    0.6866   -1.7776 H   0  0  0  0  0  0  0  0  0  0  0  0
    4.6428   -0.9603    0.7027 H   0  0  0  0  0  0  0  0  0  0  0  0
    8.6980   -2.6278    0.9868 H   0  0  0  0  0  0  0  0  0  0  0  0
  1  2  1  0
  2  3  1  0
  3  4  1  0
  4  5  1  0
  5  6  1  0
  6  7  2  0
  7  8  1  0
  8  9  2  0
  9 10  1  0
 10 11  2  0
 11 12  1  0
 12 13  1  0
 13 14  1  0
 14 15  1  0
 15 16  1  0
  9 17  1  0
 17 18  2  0
 18 19  1  0
 19 20  2  0
 20 21  1  0
 21 22  1  0
 22 23  2  0
 23 24  1  0
 24 25  2  0
 25 26  1  0
 26 27  2  0
 26 28  1  0
 28 29  3  0
 11  6  1  0
 20  8  1  0
 27 22  1  0
  1 30  1  0
  1 31  1  0
  1 32  1  0
  3 33  1  0
  3 34  1  0
  4 35  1  0
  4 36  1  0
  7 37  1  0
 10 38  1  0
 13 39  1  0
 13 40  1  0
 14 41  1  0
 14 42  1  0
 16 43  1  0
 16 44  1  0
 16 45  1  0
 18 46  1  0
 21 47  1  0
 23 48  1  0
 24 49  1  0
 25 50  1  0
 27 51  1  0
 29 52  1  0
M  END
>  <energy_abs>  (233) 
60.340091112875356

>  <SMILES>  (233) 
COCCOc1cc2c(cc1OCCOC)ncnc2Nc3cccc(c3)C#C

>  <cluster_no>  (233) 
233

>  <fda_drugs_id>  (233) 
AAKJLRGGTJKAMG-UHFFFAOYSA-N

>  <initial_conformation_id>  (233) 
65

>  <minimize_method>  (233) 
MMFF

$$$$

     RDKit          3D

 52 54  0  0  0  0  0  0  0  0999 V2000
   -2.4774   -4.6343   -1.3630 C   0  0  0  0  0  0  0  0  0  0  0  0
   -3.0655   -4.2137   -0.1414 O   0  0  0  0  0  0  0  0  0  0  0  0
   -2.1334   -4.0848    0.9363 C   0  0  0  0  0  0  0  0  0  0  0  0
   -1.1981   -2.8777    0.8058 C   0  0  0  0  0  0  0  0  0  0  0  0
   -1.9686   -1.6782    0.8990 O   0  0  0  0  0  0  0  0  0  0  0  0
   -1.3379   -0.4893    0.6378 C   0  0  0  0  0  0  0  0  0  0  0  0
    0.0466   -0.3270    0.5726 C   0  0  0  0  0  0  0  0  0  0  0  0
    0.6220    0.9415    0.3035 C   0  0  0  0  0  0  0  0  0  0  0  0
   -0.2142    2.0434    0.0898 C   0  0  0  0  0  0  0  0  0  0  0  0
   -1.5904    1.8709    0.1723 C   0  0  0  0  0  0  0  0  0  0  0  0
   -2.1672    0.6252    0.4406 C   0  0  0  0  0  0  0  0  0  0  0  0
   -3.5145    0.3962    0.5487 O   0  0  0  0  0  0  0  0  0  0  0  0
   -4.4277    1.3791    0.0660 C   0  0  0  0  0  0  0  0  0  0  0  0
   -4.8906    2.2948    1.1990 C   0  0  0  0  0  0  0  0  0  0  0  0
   -5.7401    3.3442    0.7337 O   0  0  0  0  0  0  0  0  0  0  0  0
   -7.0800    2.9214    0.5176 C   0  0  0  0  0  0  0  0  0  0  0  0
    0.2561    3.2619   -0.1876 N   0  0  0  0  0  0  0  0  0  0  0  0
    1.5841    3.3927   -0.2660 C   0  0  0  0  0  0  0  0  0  0  0  0
    2.4826    2.4244   -0.0761 N   0  0  0  0  0  0  0  0  0  0  0  0
    2.0055    1.2027    0.2196 C   0  0  0  0  0  0  0  0  0  0  0  0
    2.9189    0.1449    0.4866 N   0  0  0  0  0  0  0  0  0  0  0  0
    4.3025    0.0935    0.1971 C   0  0  0  0  0  0  0  0  0  0  0  0
    5.1254   -0.7537    0.9568 C   0  0  0  0  0  0  0  0  0  0  0  0
    6.4855   -0.8907    0.6664 C   0  0  0  0  0  0  0  0  0  0  0  0
    7.0399   -0.2002   -0.4088 C   0  0  0  0  0  0  0  0  0  0  0  0
    6.2311    0.6164   -1.1986 C   0  0  0  0  0  0  0  0  0  0  0  0
    4.8698    0.7501   -0.9029 C   0  0  0  0  0  0  0  0  0  0  0  0
    6.7922    1.3093   -2.3182 C   0  0  0  0  0  0  0  0  0  0  0  0
    7.2620    1.8914   -3.2576 C   0  0  0  0  0  0  0  0  0  0  0  0
   -3.2813   -4.8359   -2.0763 H   0  0  0  0  0  0  0  0  0  0  0  0
   -1.9008   -5.5534   -1.2221 H   0  0  0  0  0  0  0  0  0  0  0  0
   -1.8433   -3.8487   -1.7816 H   0  0  0  0  0  0  0  0  0  0  0  0
   -1.5554   -5.0112    1.0293 H   0  0  0  0  0  0  0  0  0  0  0  0
   -2.7334   -3.9749    1.8462 H   0  0  0  0  0  0  0  0  0  0  0  0
   -0.4786   -2.9084    1.6322 H   0  0  0  0  0  0  0  0  0  0  0  0
   -0.6659   -2.9107   -0.1504 H   0  0  0  0  0  0  0  0  0  0  0  0
    0.7060   -1.1757    0.7184 H   0  0  0  0  0  0  0  0  0  0  0  0
   -2.2030    2.7556    0.0268 H   0  0  0  0  0  0  0  0  0  0  0  0
   -4.0460    1.9391   -0.7961 H   0  0  0  0  0  0  0  0  0  0  0  0
   -5.2921    0.8290   -0.3225 H   0  0  0  0  0  0  0  0  0  0  0  0
   -5.3794    1.7205    1.9957 H   0  0  0  0  0  0  0  0  0  0  0  0
   -4.0219    2.7707    1.6658 H   0  0  0  0  0  0  0  0  0  0  0  0
   -7.5070    2.5083    1.4365 H   0  0  0  0  0  0  0  0  0  0  0  0
   -7.6697    3.7940    0.2238 H   0  0  0  0  0  0  0  0  0  0  0  0
   -7.1326    2.1851   -0.2886 H   0  0  0  0  0  0  0  0  0  0  0  0
    1.9679    4.3793   -0.5021 H   0  0  0  0  0  0  0  0  0  0  0  0
    2.7245   -0.2166    1.4148 H   0  0  0  0  0  0  0  0  0  0  0  0
    4.7152   -1.3150    1.7923 H   0  0  0  0  0  0  0  0  0  0  0  0
    7.1098   -1.5394    1.2751 H   0  0  0  0  0  0  0  0  0  0  0  0
    8.0980   -0.3097   -0.6329 H   0  0  0  0  0  0  0  0  0  0  0  0
    4.2502    1.3708   -1.5450 H   0  0  0  0  0  0  0  0  0  0  0  0
    7.6759    2.4096   -4.0908 H   0  0  0  0  0  0  0  0  0  0  0  0
  1  2  1  0
  2  3  1  0
  3  4  1  0
  4  5  1  0
  5  6  1  0
  6  7  2  0
  7  8  1  0
  8  9  2  0
  9 10  1  0
 10 11  2  0
 11 12  1  0
 12 13  1  0
 13 14  1  0
 14 15  1  0
 15 16  1  0
  9 17  1  0
 17 18  2  0
 18 19  1  0
 19 20  2  0
 20 21  1  0
 21 22  1  0
 22 23  2  0
 23 24  1  0
 24 25  2  0
 25 26  1  0
 26 27  2  0
 26 28  1  0
 28 29  3  0
 11  6  1  0
 20  8  1  0
 27 22  1  0
  1 30  1  0
  1 31  1  0
  1 32  1  0
  3 33  1  0
  3 34  1  0
  4 35  1  0
  4 36  1  0
  7 37  1  0
 10 38  1  0
 13 39  1  0
 13 40  1  0
 14 41  1  0
 14 42  1  0
 16 43  1  0
 16 44  1  0
 16 45  1  0
 18 46  1  0
 21 47  1  0
 23 48  1  0
 24 49  1  0
 25 50  1  0
 27 51  1  0
 29 52  1  0
M  END
>  <energy_abs>  (234) 
63.37471453135857

>  <SMILES>  (234) 
COCCOc1cc2c(cc1OCCOC)ncnc2Nc3cccc(c3)C#C

>  <cluster_no>  (234) 
234

>  <fda_drugs_id>  (234) 
AAKJLRGGTJKAMG-UHFFFAOYSA-N

>  <initial_conformation_id>  (234) 
64

>  <minimize_method>  (234) 
MMFF

$$$$

     RDKit          3D

 52 54  0  0  0  0  0  0  0  0999 V2000
   -1.5684   -4.6077    0.8112 C   0  0  0  0  0  0  0  0  0  0  0  0
   -1.8027   -4.7084   -0.5907 O   0  0  0  0  0  0  0  0  0  0  0  0
   -2.6427   -3.6653   -1.1063 C   0  0  0  0  0  0  0  0  0  0  0  0
   -1.9206   -2.3213   -1.2366 C   0  0  0  0  0  0  0  0  0  0  0  0
   -1.8452   -1.6986    0.0579 O   0  0  0  0  0  0  0  0  0  0  0  0
   -1.4257   -0.3990   -0.0636 C   0  0  0  0  0  0  0  0  0  0  0  0
   -0.0594   -0.1365   -0.1221 C   0  0  0  0  0  0  0  0  0  0  0  0
    0.4075    1.1955   -0.2068 C   0  0  0  0  0  0  0  0  0  0  0  0
   -0.5214    2.2470   -0.1928 C   0  0  0  0  0  0  0  0  0  0  0  0
   -1.8809    1.9554   -0.1135 C   0  0  0  0  0  0  0  0  0  0  0  0
   -2.3546    0.6432   -0.0407 C   0  0  0  0  0  0  0  0  0  0  0  0
   -3.6699    0.2733    0.0385 O   0  0  0  0  0  0  0  0  0  0  0  0
   -4.6477    1.2665    0.3524 C   0  0  0  0  0  0  0  0  0  0  0  0
   -4.6635    1.5976    1.8443 C   0  0  0  0  0  0  0  0  0  0  0  0
   -5.6503    2.5980    2.0948 O   0  0  0  0  0  0  0  0  0  0  0  0
   -5.7212    2.9238    3.4779 C   0  0  0  0  0  0  0  0  0  0  0  0
   -0.1565    3.5293   -0.2496 N   0  0  0  0  0  0  0  0  0  0  0  0
    1.1551    3.7798   -0.3169 C   0  0  0  0  0  0  0  0  0  0  0  0
    2.1318    2.8692   -0.3424 N   0  0  0  0  0  0  0  0  0  0  0  0
    1.7623    1.5773   -0.2940 C   0  0  0  0  0  0  0  0  0  0  0  0
    2.7578    0.5623   -0.3563 N   0  0  0  0  0  0  0  0  0  0  0  0
    4.1579    0.6966   -0.2082 C   0  0  0  0  0  0  0  0  0  0  0  0
    4.7433    1.6804    0.5978 C   0  0  0  0  0  0  0  0  0  0  0  0
    6.1296    1.7468    0.7653 C   0  0  0  0  0  0  0  0  0  0  0  0
    6.9536    0.8079    0.1492 C   0  0  0  0  0  0  0  0  0  0  0  0
    6.3884   -0.2059   -0.6219 C   0  0  0  0  0  0  0  0  0  0  0  0
    4.9999   -0.2672   -0.7877 C   0  0  0  0  0  0  0  0  0  0  0  0
    7.2274   -1.1842   -1.2439 C   0  0  0  0  0  0  0  0  0  0  0  0
    7.9349   -2.0014   -1.7660 C   0  0  0  0  0  0  0  0  0  0  0  0
   -1.1172   -5.5466    1.1501 H   0  0  0  0  0  0  0  0  0  0  0  0
   -0.8605   -3.8031    1.0241 H   0  0  0  0  0  0  0  0  0  0  0  0
   -2.5059   -4.4577    1.3597 H   0  0  0  0  0  0  0  0  0  0  0  0
   -3.5513   -3.5802   -0.4952 H   0  0  0  0  0  0  0  0  0  0  0  0
   -2.9439   -3.9924   -2.1082 H   0  0  0  0  0  0  0  0  0  0  0  0
   -0.9047   -2.4773   -1.6285 H   0  0  0  0  0  0  0  0  0  0  0  0
   -2.4919   -1.6813   -1.9267 H   0  0  0  0  0  0  0  0  0  0  0  0
    0.6369   -0.9695   -0.0820 H   0  0  0  0  0  0  0  0  0  0  0  0
   -2.5603    2.8025   -0.1096 H   0  0  0  0  0  0  0  0  0  0  0  0
   -4.5578    2.1592   -0.2776 H   0  0  0  0  0  0  0  0  0  0  0  0
   -5.6243    0.8431    0.0856 H   0  0  0  0  0  0  0  0  0  0  0  0
   -4.8893    0.6921    2.4213 H   0  0  0  0  0  0  0  0  0  0  0  0
   -3.6829    1.9616    2.1711 H   0  0  0  0  0  0  0  0  0  0  0  0
   -6.0249    2.0487    4.0603 H   0  0  0  0  0  0  0  0  0  0  0  0
   -6.4697    3.7091    3.6093 H   0  0  0  0  0  0  0  0  0  0  0  0
   -4.7571    3.2995    3.8346 H   0  0  0  0  0  0  0  0  0  0  0  0
    1.4546    4.8212   -0.3593 H   0  0  0  0  0  0  0  0  0  0  0  0
    2.5293   -0.0749   -1.1121 H   0  0  0  0  0  0  0  0  0  0  0  0
    4.1251    2.4139    1.1096 H   0  0  0  0  0  0  0  0  0  0  0  0
    6.5624    2.5333    1.3805 H   0  0  0  0  0  0  0  0  0  0  0  0
    8.0310    0.8658    0.2822 H   0  0  0  0  0  0  0  0  0  0  0  0
    4.5761   -1.0722   -1.3829 H   0  0  0  0  0  0  0  0  0  0  0  0
    8.5629   -2.7247   -2.2297 H   0  0  0  0  0  0  0  0  0  0  0  0
  1  2  1  0
  2  3  1  0
  3  4  1  0
  4  5  1  0
  5  6  1  0
  6  7  2  0
  7  8  1  0
  8  9  2  0
  9 10  1  0
 10 11  2  0
 11 12  1  0
 12 13  1  0
 13 14  1  0
 14 15  1  0
 15 16  1  0
  9 17  1  0
 17 18  2  0
 18 19  1  0
 19 20  2  0
 20 21  1  0
 21 22  1  0
 22 23  2  0
 23 24  1  0
 24 25  2  0
 25 26  1  0
 26 27  2  0
 26 28  1  0
 28 29  3  0
 11  6  1  0
 20  8  1  0
 27 22  1  0
  1 30  1  0
  1 31  1  0
  1 32  1  0
  3 33  1  0
  3 34  1  0
  4 35  1  0
  4 36  1  0
  7 37  1  0
 10 38  1  0
 13 39  1  0
 13 40  1  0
 14 41  1  0
 14 42  1  0
 16 43  1  0
 16 44  1  0
 16 45  1  0
 18 46  1  0
 21 47  1  0
 23 48  1  0
 24 49  1  0
 25 50  1  0
 27 51  1  0
 29 52  1  0
M  END
>  <energy_abs>  (235) 
58.55104133532501

>  <SMILES>  (235) 
COCCOc1cc2c(cc1OCCOC)ncnc2Nc3cccc(c3)C#C

>  <cluster_no>  (235) 
235

>  <fda_drugs_id>  (235) 
AAKJLRGGTJKAMG-UHFFFAOYSA-N

>  <initial_conformation_id>  (235) 
63

>  <minimize_method>  (235) 
MMFF

$$$$

     RDKit          3D

 52 54  0  0  0  0  0  0  0  0999 V2000
   -2.3687   -5.5520    0.5473 C   0  0  0  0  0  0  0  0  0  0  0  0
   -2.4499   -4.1372    0.6628 O   0  0  0  0  0  0  0  0  0  0  0  0
   -2.9605   -3.5370   -0.5295 C   0  0  0  0  0  0  0  0  0  0  0  0
   -2.9794   -2.0126   -0.3841 C   0  0  0  0  0  0  0  0  0  0  0  0
   -1.6294   -1.5408   -0.4242 O   0  0  0  0  0  0  0  0  0  0  0  0
   -1.3808   -0.1964   -0.3852 C   0  0  0  0  0  0  0  0  0  0  0  0
   -0.0061    0.0773   -0.4230 C   0  0  0  0  0  0  0  0  0  0  0  0
    0.4950    1.3994   -0.4202 C   0  0  0  0  0  0  0  0  0  0  0  0
   -0.4130    2.4589   -0.3686 C   0  0  0  0  0  0  0  0  0  0  0  0
   -1.7754    2.1776   -0.3194 C   0  0  0  0  0  0  0  0  0  0  0  0
   -2.2857    0.8698   -0.3173 C   0  0  0  0  0  0  0  0  0  0  0  0
   -3.6218    0.5840   -0.2610 O   0  0  0  0  0  0  0  0  0  0  0  0
   -4.5753    1.6110    0.0355 C   0  0  0  0  0  0  0  0  0  0  0  0
   -4.6058    1.9556    1.5268 C   0  0  0  0  0  0  0  0  0  0  0  0
   -5.2023    0.8739    2.2522 O   0  0  0  0  0  0  0  0  0  0  0  0
   -5.1298    1.0774    3.6573 C   0  0  0  0  0  0  0  0  0  0  0  0
   -0.0293    3.7382   -0.3599 N   0  0  0  0  0  0  0  0  0  0  0  0
    1.2873    3.9704   -0.3936 C   0  0  0  0  0  0  0  0  0  0  0  0
    2.2501    3.0468   -0.4375 N   0  0  0  0  0  0  0  0  0  0  0  0
    1.8592    1.7597   -0.4563 C   0  0  0  0  0  0  0  0  0  0  0  0
    2.8378    0.7318   -0.5114 N   0  0  0  0  0  0  0  0  0  0  0  0
    4.2267    0.8102   -0.2680 C   0  0  0  0  0  0  0  0  0  0  0  0
    4.7983    1.7773    0.5647 C   0  0  0  0  0  0  0  0  0  0  0  0
    6.1699    1.7804    0.8345 C   0  0  0  0  0  0  0  0  0  0  0  0
    6.9886    0.7880    0.3043 C   0  0  0  0  0  0  0  0  0  0  0  0
    6.4339   -0.2097   -0.4930 C   0  0  0  0  0  0  0  0  0  0  0  0
    5.0635   -0.1999   -0.7725 C   0  0  0  0  0  0  0  0  0  0  0  0
    7.2646   -1.2424   -1.0307 C   0  0  0  0  0  0  0  0  0  0  0  0
    7.9570   -2.1050   -1.5007 C   0  0  0  0  0  0  0  0  0  0  0  0
   -1.6639   -5.8317   -0.2438 H   0  0  0  0  0  0  0  0  0  0  0  0
   -2.0103   -5.9599    1.5005 H   0  0  0  0  0  0  0  0  0  0  0  0
   -3.3551   -5.9765    0.3332 H   0  0  0  0  0  0  0  0  0  0  0  0
   -3.9785   -3.9011   -0.6966 H   0  0  0  0  0  0  0  0  0  0  0  0
   -2.3249   -3.8258   -1.3736 H   0  0  0  0  0  0  0  0  0  0  0  0
   -3.4442   -1.7448    0.5733 H   0  0  0  0  0  0  0  0  0  0  0  0
   -3.5388   -1.6050   -1.2344 H   0  0  0  0  0  0  0  0  0  0  0  0
    0.6800   -0.7671   -0.4409 H   0  0  0  0  0  0  0  0  0  0  0  0
   -2.4342    3.0395   -0.2812 H   0  0  0  0  0  0  0  0  0  0  0  0
   -4.4164    2.4933   -0.5933 H   0  0  0  0  0  0  0  0  0  0  0  0
   -5.5508    1.2014   -0.2518 H   0  0  0  0  0  0  0  0  0  0  0  0
   -3.5965    2.1364    1.9128 H   0  0  0  0  0  0  0  0  0  0  0  0
   -5.2159    2.8528    1.6802 H   0  0  0  0  0  0  0  0  0  0  0  0
   -5.6328    2.0090    3.9370 H   0  0  0  0  0  0  0  0  0  0  0  0
   -5.6351    0.2433    4.1547 H   0  0  0  0  0  0  0  0  0  0  0  0
   -4.0863    1.0982    3.9871 H   0  0  0  0  0  0  0  0  0  0  0  0
    1.6044    5.0081   -0.3846 H   0  0  0  0  0  0  0  0  0  0  0  0
    2.6238    0.1033   -1.2778 H   0  0  0  0  0  0  0  0  0  0  0  0
    4.1810    2.5413    1.0302 H   0  0  0  0  0  0  0  0  0  0  0  0
    6.5887    2.5528    1.4716 H   0  0  0  0  0  0  0  0  0  0  0  0
    8.0520    0.7921    0.5264 H   0  0  0  0  0  0  0  0  0  0  0  0
    4.6457   -0.9903   -1.3918 H   0  0  0  0  0  0  0  0  0  0  0  0
    8.5684   -2.8665   -1.9285 H   0  0  0  0  0  0  0  0  0  0  0  0
  1  2  1  0
  2  3  1  0
  3  4  1  0
  4  5  1  0
  5  6  1  0
  6  7  2  0
  7  8  1  0
  8  9  2  0
  9 10  1  0
 10 11  2  0
 11 12  1  0
 12 13  1  0
 13 14  1  0
 14 15  1  0
 15 16  1  0
  9 17  1  0
 17 18  2  0
 18 19  1  0
 19 20  2  0
 20 21  1  0
 21 22  1  0
 22 23  2  0
 23 24  1  0
 24 25  2  0
 25 26  1  0
 26 27  2  0
 26 28  1  0
 28 29  3  0
 11  6  1  0
 20  8  1  0
 27 22  1  0
  1 30  1  0
  1 31  1  0
  1 32  1  0
  3 33  1  0
  3 34  1  0
  4 35  1  0
  4 36  1  0
  7 37  1  0
 10 38  1  0
 13 39  1  0
 13 40  1  0
 14 41  1  0
 14 42  1  0
 16 43  1  0
 16 44  1  0
 16 45  1  0
 18 46  1  0
 21 47  1  0
 23 48  1  0
 24 49  1  0
 25 50  1  0
 27 51  1  0
 29 52  1  0
M  END
>  <energy_abs>  (236) 
60.30040177283182

>  <SMILES>  (236) 
COCCOc1cc2c(cc1OCCOC)ncnc2Nc3cccc(c3)C#C

>  <cluster_no>  (236) 
236

>  <fda_drugs_id>  (236) 
AAKJLRGGTJKAMG-UHFFFAOYSA-N

>  <initial_conformation_id>  (236) 
62

>  <minimize_method>  (236) 
MMFF

$$$$

     RDKit          3D

 52 54  0  0  0  0  0  0  0  0999 V2000
   -0.6545   -5.7075    1.1088 C   0  0  0  0  0  0  0  0  0  0  0  0
   -1.2570   -5.1791   -0.0653 O   0  0  0  0  0  0  0  0  0  0  0  0
   -2.0401   -4.0126    0.1896 C   0  0  0  0  0  0  0  0  0  0  0  0
   -1.1876   -2.7443    0.1806 C   0  0  0  0  0  0  0  0  0  0  0  0
   -2.0370   -1.6283    0.4353 O   0  0  0  0  0  0  0  0  0  0  0  0
   -1.4806   -0.3756    0.4349 C   0  0  0  0  0  0  0  0  0  0  0  0
   -0.1279   -0.1063    0.2209 C   0  0  0  0  0  0  0  0  0  0  0  0
    0.3646    1.2246    0.2349 C   0  0  0  0  0  0  0  0  0  0  0  0
   -0.5268    2.2824    0.4470 C   0  0  0  0  0  0  0  0  0  0  0  0
   -1.8694    2.0002    0.6632 C   0  0  0  0  0  0  0  0  0  0  0  0
   -2.3627    0.6917    0.6671 C   0  0  0  0  0  0  0  0  0  0  0  0
   -3.6748    0.3483    0.8718 O   0  0  0  0  0  0  0  0  0  0  0  0
   -4.6323    1.3661    1.1572 C   0  0  0  0  0  0  0  0  0  0  0  0
   -5.2033    1.9693   -0.1268 C   0  0  0  0  0  0  0  0  0  0  0  0
   -6.1715    2.9826    0.1471 O   0  0  0  0  0  0  0  0  0  0  0  0
   -5.5865    4.2555    0.3894 C   0  0  0  0  0  0  0  0  0  0  0  0
   -0.1440    3.5615    0.4496 N   0  0  0  0  0  0  0  0  0  0  0  0
    1.1527    3.8013    0.2299 C   0  0  0  0  0  0  0  0  0  0  0  0
    2.0987    2.8833    0.0222 N   0  0  0  0  0  0  0  0  0  0  0  0
    1.7109    1.5957    0.0345 C   0  0  0  0  0  0  0  0  0  0  0  0
    2.6841    0.5728   -0.1358 N   0  0  0  0  0  0  0  0  0  0  0  0
    4.0108    0.6926   -0.6106 C   0  0  0  0  0  0  0  0  0  0  0  0
    4.4002    1.6751   -1.5290 C   0  0  0  0  0  0  0  0  0  0  0  0
    5.7043    1.7194   -2.0312 C   0  0  0  0  0  0  0  0  0  0  0  0
    6.6360    0.7607   -1.6400 C   0  0  0  0  0  0  0  0  0  0  0  0
    6.2585   -0.2488   -0.7563 C   0  0  0  0  0  0  0  0  0  0  0  0
    4.9517   -0.2881   -0.2565 C   0  0  0  0  0  0  0  0  0  0  0  0
    7.2041   -1.2493   -0.3654 C   0  0  0  0  0  0  0  0  0  0  0  0
    7.9981   -2.0885   -0.0379 C   0  0  0  0  0  0  0  0  0  0  0  0
   -0.0868   -6.5994    0.8300 H   0  0  0  0  0  0  0  0  0  0  0  0
   -1.4202   -5.9973    1.8348 H   0  0  0  0  0  0  0  0  0  0  0  0
    0.0343   -4.9853    1.5552 H   0  0  0  0  0  0  0  0  0  0  0  0
   -2.7891   -3.9407   -0.6075 H   0  0  0  0  0  0  0  0  0  0  0  0
   -2.6029   -4.1099    1.1263 H   0  0  0  0  0  0  0  0  0  0  0  0
   -0.4128   -2.8120    0.9525 H   0  0  0  0  0  0  0  0  0  0  0  0
   -0.7028   -2.6505   -0.7990 H   0  0  0  0  0  0  0  0  0  0  0  0
    0.5683   -0.9136    0.0193 H   0  0  0  0  0  0  0  0  0  0  0  0
   -2.5230    2.8510    0.8233 H   0  0  0  0  0  0  0  0  0  0  0  0
   -5.4542    0.8836    1.7007 H   0  0  0  0  0  0  0  0  0  0  0  0
   -4.2477    2.1145    1.8583 H   0  0  0  0  0  0  0  0  0  0  0  0
   -5.7100    1.1772   -0.6901 H   0  0  0  0  0  0  0  0  0  0  0  0
   -4.4190    2.3515   -0.7901 H   0  0  0  0  0  0  0  0  0  0  0  0
   -4.9401    4.2290    1.2706 H   0  0  0  0  0  0  0  0  0  0  0  0
   -5.0184    4.5885   -0.4845 H   0  0  0  0  0  0  0  0  0  0  0  0
   -6.3915    4.9724    0.5730 H   0  0  0  0  0  0  0  0  0  0  0  0
    1.4668    4.8394    0.2229 H   0  0  0  0  0  0  0  0  0  0  0  0
    2.6338   -0.0575    0.6579 H   0  0  0  0  0  0  0  0  0  0  0  0
    3.6879    2.4205   -1.8730 H   0  0  0  0  0  0  0  0  0  0  0  0
    5.9863    2.4995   -2.7334 H   0  0  0  0  0  0  0  0  0  0  0  0
    7.6477    0.7999   -2.0357 H   0  0  0  0  0  0  0  0  0  0  0  0
    4.6716   -1.0924    0.4190 H   0  0  0  0  0  0  0  0  0  0  0  0
    8.7043   -2.8317    0.2508 H   0  0  0  0  0  0  0  0  0  0  0  0
  1  2  1  0
  2  3  1  0
  3  4  1  0
  4  5  1  0
  5  6  1  0
  6  7  2  0
  7  8  1  0
  8  9  2  0
  9 10  1  0
 10 11  2  0
 11 12  1  0
 12 13  1  0
 13 14  1  0
 14 15  1  0
 15 16  1  0
  9 17  1  0
 17 18  2  0
 18 19  1  0
 19 20  2  0
 20 21  1  0
 21 22  1  0
 22 23  2  0
 23 24  1  0
 24 25  2  0
 25 26  1  0
 26 27  2  0
 26 28  1  0
 28 29  3  0
 11  6  1  0
 20  8  1  0
 27 22  1  0
  1 30  1  0
  1 31  1  0
  1 32  1  0
  3 33  1  0
  3 34  1  0
  4 35  1  0
  4 36  1  0
  7 37  1  0
 10 38  1  0
 13 39  1  0
 13 40  1  0
 14 41  1  0
 14 42  1  0
 16 43  1  0
 16 44  1  0
 16 45  1  0
 18 46  1  0
 21 47  1  0
 23 48  1  0
 24 49  1  0
 25 50  1  0
 27 51  1  0
 29 52  1  0
M  END
>  <energy_abs>  (237) 
60.61864812587453

>  <SMILES>  (237) 
COCCOc1cc2c(cc1OCCOC)ncnc2Nc3cccc(c3)C#C

>  <cluster_no>  (237) 
237

>  <fda_drugs_id>  (237) 
AAKJLRGGTJKAMG-UHFFFAOYSA-N

>  <initial_conformation_id>  (237) 
60

>  <minimize_method>  (237) 
MMFF

$$$$

     RDKit          3D

 52 54  0  0  0  0  0  0  0  0999 V2000
   -3.6162   -4.7671    1.0262 C   0  0  0  0  0  0  0  0  0  0  0  0
   -2.3881   -4.3663    0.4437 O   0  0  0  0  0  0  0  0  0  0  0  0
   -1.5528   -3.6214    1.3342 C   0  0  0  0  0  0  0  0  0  0  0  0
   -1.9140   -2.1422    1.3780 C   0  0  0  0  0  0  0  0  0  0  0  0
   -1.5758   -1.5640    0.1250 O   0  0  0  0  0  0  0  0  0  0  0  0
   -1.1802   -0.2572    0.2527 C   0  0  0  0  0  0  0  0  0  0  0  0
    0.1593    0.0191   -0.0128 C   0  0  0  0  0  0  0  0  0  0  0  0
    0.6557    1.3419    0.0732 C   0  0  0  0  0  0  0  0  0  0  0  0
   -0.2227    2.3752    0.4186 C   0  0  0  0  0  0  0  0  0  0  0  0
   -1.5621    2.0775    0.6528 C   0  0  0  0  0  0  0  0  0  0  0  0
   -2.0631    0.7745    0.5575 C   0  0  0  0  0  0  0  0  0  0  0  0
   -3.3709    0.4311    0.7590 O   0  0  0  0  0  0  0  0  0  0  0  0
   -4.3454    1.4525    0.5420 C   0  0  0  0  0  0  0  0  0  0  0  0
   -5.7128    0.7901    0.4164 C   0  0  0  0  0  0  0  0  0  0  0  0
   -6.7781    1.7282    0.2981 O   0  0  0  0  0  0  0  0  0  0  0  0
   -6.8977    2.2778   -1.0102 C   0  0  0  0  0  0  0  0  0  0  0  0
    0.1735    3.6425    0.5270 N   0  0  0  0  0  0  0  0  0  0  0  0
    1.4693    3.8945    0.3080 C   0  0  0  0  0  0  0  0  0  0  0  0
    2.4003    3.0017   -0.0171 N   0  0  0  0  0  0  0  0  0  0  0  0
    1.9962    1.7244   -0.1471 C   0  0  0  0  0  0  0  0  0  0  0  0
    2.9402    0.7228   -0.5044 N   0  0  0  0  0  0  0  0  0  0  0  0
    4.3519    0.7719   -0.4776 C   0  0  0  0  0  0  0  0  0  0  0  0
    5.0672    1.6099    0.3807 C   0  0  0  0  0  0  0  0  0  0  0  0
    6.4651    1.5787    0.4327 C   0  0  0  0  0  0  0  0  0  0  0  0
    7.1713    0.6824   -0.3577 C   0  0  0  0  0  0  0  0  0  0  0  0
    6.4759   -0.1949   -1.1914 C   0  0  0  0  0  0  0  0  0  0  0  0
    5.0779   -0.1531   -1.2431 C   0  0  0  0  0  0  0  0  0  0  0  0
    7.1938   -1.1413   -1.9857 C   0  0  0  0  0  0  0  0  0  0  0  0
    7.8009   -1.9349   -2.6494 C   0  0  0  0  0  0  0  0  0  0  0  0
   -4.1576   -5.3712    0.2878 H   0  0  0  0  0  0  0  0  0  0  0  0
   -3.4263   -5.3838    1.9146 H   0  0  0  0  0  0  0  0  0  0  0  0
   -4.2341   -3.8994    1.2961 H   0  0  0  0  0  0  0  0  0  0  0  0
   -1.5755   -4.0550    2.3276 H   0  0  0  0  0  0  0  0  0  0  0  0
   -0.5417   -3.7209    0.9564 H   0  0  0  0  0  0  0  0  0  0  0  0
   -2.9731   -2.0230    1.5435 H   0  0  0  0  0  0  0  0  0  0  0  0
   -1.3590   -1.6677    2.1978 H   0  0  0  0  0  0  0  0  0  0  0  0
    0.8171   -0.8085   -0.2697 H   0  0  0  0  0  0  0  0  0  0  0  0
   -2.2100    2.9016    0.9271 H   0  0  0  0  0  0  0  0  0  0  0  0
   -4.3550    2.1427    1.3853 H   0  0  0  0  0  0  0  0  0  0  0  0
   -4.1302    2.0090   -0.3704 H   0  0  0  0  0  0  0  0  0  0  0  0
   -5.7326    0.0816   -0.4153 H   0  0  0  0  0  0  0  0  0  0  0  0
   -5.8945    0.1996    1.3153 H   0  0  0  0  0  0  0  0  0  0  0  0
   -7.8164    2.8673   -1.0503 H   0  0  0  0  0  0  0  0  0  0  0  0
   -6.9619    1.4898   -1.7684 H   0  0  0  0  0  0  0  0  0  0  0  0
   -6.0518    2.9386   -1.2246 H   0  0  0  0  0  0  0  0  0  0  0  0
    1.7960    4.9220    0.4076 H   0  0  0  0  0  0  0  0  0  0  0  0
    2.5994    0.2059   -1.3103 H   0  0  0  0  0  0  0  0  0  0  0  0
    4.5449    2.2983    1.0366 H   0  0  0  0  0  0  0  0  0  0  0  0
    6.9973    2.2469    1.1019 H   0  0  0  0  0  0  0  0  0  0  0  0
    8.2581    0.6562   -0.3093 H   0  0  0  0  0  0  0  0  0  0  0  0
    4.5580   -0.8506   -1.8901 H   0  0  0  0  0  0  0  0  0  0  0  0
    8.3361   -2.6318   -3.2350 H   0  0  0  0  0  0  0  0  0  0  0  0
  1  2  1  0
  2  3  1  0
  3  4  1  0
  4  5  1  0
  5  6  1  0
  6  7  2  0
  7  8  1  0
  8  9  2  0
  9 10  1  0
 10 11  2  0
 11 12  1  0
 12 13  1  0
 13 14  1  0
 14 15  1  0
 15 16  1  0
  9 17  1  0
 17 18  2  0
 18 19  1  0
 19 20  2  0
 20 21  1  0
 21 22  1  0
 22 23  2  0
 23 24  1  0
 24 25  2  0
 25 26  1  0
 26 27  2  0
 26 28  1  0
 28 29  3  0
 11  6  1  0
 20  8  1  0
 27 22  1  0
  1 30  1  0
  1 31  1  0
  1 32  1  0
  3 33  1  0
  3 34  1  0
  4 35  1  0
  4 36  1  0
  7 37  1  0
 10 38  1  0
 13 39  1  0
 13 40  1  0
 14 41  1  0
 14 42  1  0
 16 43  1  0
 16 44  1  0
 16 45  1  0
 18 46  1  0
 21 47  1  0
 23 48  1  0
 24 49  1  0
 25 50  1  0
 27 51  1  0
 29 52  1  0
M  END
>  <energy_abs>  (238) 
60.83394238264283

>  <SMILES>  (238) 
COCCOc1cc2c(cc1OCCOC)ncnc2Nc3cccc(c3)C#C

>  <cluster_no>  (238) 
238

>  <fda_drugs_id>  (238) 
AAKJLRGGTJKAMG-UHFFFAOYSA-N

>  <initial_conformation_id>  (238) 
59

>  <minimize_method>  (238) 
MMFF

$$$$

     RDKit          3D

 52 54  0  0  0  0  0  0  0  0999 V2000
   -2.3558   -6.0146    2.5457 C   0  0  0  0  0  0  0  0  0  0  0  0
   -1.5102   -4.9456    2.1330 O   0  0  0  0  0  0  0  0  0  0  0  0
   -2.2704   -3.8520    1.6201 C   0  0  0  0  0  0  0  0  0  0  0  0
   -1.3260   -2.7268    1.2172 C   0  0  0  0  0  0  0  0  0  0  0  0
   -2.1062   -1.6262    0.7515 O   0  0  0  0  0  0  0  0  0  0  0  0
   -1.4680   -0.4305    0.5482 C   0  0  0  0  0  0  0  0  0  0  0  0
   -0.0832   -0.2793    0.4606 C   0  0  0  0  0  0  0  0  0  0  0  0
    0.4986    0.9924    0.2327 C   0  0  0  0  0  0  0  0  0  0  0  0
   -0.3340    2.1042    0.0607 C   0  0  0  0  0  0  0  0  0  0  0  0
   -1.7103    1.9382    0.1444 C   0  0  0  0  0  0  0  0  0  0  0  0
   -2.2931    0.6936    0.3949 C   0  0  0  0  0  0  0  0  0  0  0  0
   -3.6401    0.4643    0.5012 O   0  0  0  0  0  0  0  0  0  0  0  0
   -4.5471    1.5643    0.4793 C   0  0  0  0  0  0  0  0  0  0  0  0
   -5.0106    1.8639   -0.9461 C   0  0  0  0  0  0  0  0  0  0  0  0
   -5.9337    2.9541   -0.9736 O   0  0  0  0  0  0  0  0  0  0  0  0
   -5.2906    4.2176   -1.1144 C   0  0  0  0  0  0  0  0  0  0  0  0
    0.1372    3.3270   -0.1851 N   0  0  0  0  0  0  0  0  0  0  0  0
    1.4654    3.4532   -0.2672 C   0  0  0  0  0  0  0  0  0  0  0  0
    2.3605    2.4751   -0.1155 N   0  0  0  0  0  0  0  0  0  0  0  0
    1.8824    1.2477    0.1419 C   0  0  0  0  0  0  0  0  0  0  0  0
    2.7921    0.1756    0.3514 N   0  0  0  0  0  0  0  0  0  0  0  0
    4.1685    0.1130    0.0354 C   0  0  0  0  0  0  0  0  0  0  0  0
    4.9773   -0.8141    0.7122 C   0  0  0  0  0  0  0  0  0  0  0  0
    6.3267   -0.9718    0.3833 C   0  0  0  0  0  0  0  0  0  0  0  0
    6.8831   -0.2208   -0.6506 C   0  0  0  0  0  0  0  0  0  0  0  0
    6.0880    0.6823   -1.3578 C   0  0  0  0  0  0  0  0  0  0  0  0
    4.7378    0.8346   -1.0227 C   0  0  0  0  0  0  0  0  0  0  0  0
    6.6529    1.4447   -2.4281 C   0  0  0  0  0  0  0  0  0  0  0  0
    7.1276    2.0905   -3.3233 C   0  0  0  0  0  0  0  0  0  0  0  0
   -3.0276   -5.6839    3.3460 H   0  0  0  0  0  0  0  0  0  0  0  0
   -1.7269   -6.8230    2.9306 H   0  0  0  0  0  0  0  0  0  0  0  0
   -2.9349   -6.3953    1.6973 H   0  0  0  0  0  0  0  0  0  0  0  0
   -2.9736   -3.4921    2.3806 H   0  0  0  0  0  0  0  0  0  0  0  0
   -2.8554   -4.1759    0.7524 H   0  0  0  0  0  0  0  0  0  0  0  0
   -0.6564   -3.0853    0.4269 H   0  0  0  0  0  0  0  0  0  0  0  0
   -0.7228   -2.4417    2.0876 H   0  0  0  0  0  0  0  0  0  0  0  0
    0.5681   -1.1437    0.5373 H   0  0  0  0  0  0  0  0  0  0  0  0
   -2.3159    2.8259   -0.0012 H   0  0  0  0  0  0  0  0  0  0  0  0
   -5.4235    1.2645    1.0669 H   0  0  0  0  0  0  0  0  0  0  0  0
   -4.1597    2.4445    1.0038 H   0  0  0  0  0  0  0  0  0  0  0  0
   -5.5318    0.9825   -1.3389 H   0  0  0  0  0  0  0  0  0  0  0  0
   -4.1688    2.0428   -1.6263 H   0  0  0  0  0  0  0  0  0  0  0  0
   -6.0608    4.9949   -1.0827 H   0  0  0  0  0  0  0  0  0  0  0  0
   -4.5799    4.3955   -0.2974 H   0  0  0  0  0  0  0  0  0  0  0  0
   -4.7770    4.2721   -2.0827 H   0  0  0  0  0  0  0  0  0  0  0  0
    1.8534    4.4449   -0.4721 H   0  0  0  0  0  0  0  0  0  0  0  0
    2.5999   -0.2458    1.2546 H   0  0  0  0  0  0  0  0  0  0  0  0
    4.5626   -1.4267    1.5060 H   0  0  0  0  0  0  0  0  0  0  0  0
    6.9371   -1.6894    0.9224 H   0  0  0  0  0  0  0  0  0  0  0  0
    7.9318   -0.3496   -0.9066 H   0  0  0  0  0  0  0  0  0  0  0  0
    4.1290    1.5253   -1.6016 H   0  0  0  0  0  0  0  0  0  0  0  0
    7.5449    2.6644   -4.1183 H   0  0  0  0  0  0  0  0  0  0  0  0
  1  2  1  0
  2  3  1  0
  3  4  1  0
  4  5  1  0
  5  6  1  0
  6  7  2  0
  7  8  1  0
  8  9  2  0
  9 10  1  0
 10 11  2  0
 11 12  1  0
 12 13  1  0
 13 14  1  0
 14 15  1  0
 15 16  1  0
  9 17  1  0
 17 18  2  0
 18 19  1  0
 19 20  2  0
 20 21  1  0
 21 22  1  0
 22 23  2  0
 23 24  1  0
 24 25  2  0
 25 26  1  0
 26 27  2  0
 26 28  1  0
 28 29  3  0
 11  6  1  0
 20  8  1  0
 27 22  1  0
  1 30  1  0
  1 31  1  0
  1 32  1  0
  3 33  1  0
  3 34  1  0
  4 35  1  0
  4 36  1  0
  7 37  1  0
 10 38  1  0
 13 39  1  0
 13 40  1  0
 14 41  1  0
 14 42  1  0
 16 43  1  0
 16 44  1  0
 16 45  1  0
 18 46  1  0
 21 47  1  0
 23 48  1  0
 24 49  1  0
 25 50  1  0
 27 51  1  0
 29 52  1  0
M  END
>  <energy_abs>  (239) 
58.746352599307

>  <SMILES>  (239) 
COCCOc1cc2c(cc1OCCOC)ncnc2Nc3cccc(c3)C#C

>  <cluster_no>  (239) 
239

>  <fda_drugs_id>  (239) 
AAKJLRGGTJKAMG-UHFFFAOYSA-N

>  <initial_conformation_id>  (239) 
58

>  <minimize_method>  (239) 
MMFF

$$$$

     RDKit          3D

 52 54  0  0  0  0  0  0  0  0999 V2000
   -0.7834   -4.5675    2.9354 C   0  0  0  0  0  0  0  0  0  0  0  0
   -0.7972   -4.2022    1.5616 O   0  0  0  0  0  0  0  0  0  0  0  0
   -1.4521   -2.9498    1.3620 C   0  0  0  0  0  0  0  0  0  0  0  0
   -1.5051   -2.6500   -0.1339 C   0  0  0  0  0  0  0  0  0  0  0  0
   -2.1897   -1.4294   -0.4202 O   0  0  0  0  0  0  0  0  0  0  0  0
   -1.5666   -0.2660   -0.0689 C   0  0  0  0  0  0  0  0  0  0  0  0
   -0.1942   -0.0478   -0.1736 C   0  0  0  0  0  0  0  0  0  0  0  0
    0.3846    1.1897    0.2244 C   0  0  0  0  0  0  0  0  0  0  0  0
   -0.4422    2.2165    0.7031 C   0  0  0  0  0  0  0  0  0  0  0  0
   -1.8072    1.9917    0.7800 C   0  0  0  0  0  0  0  0  0  0  0  0
   -2.3699    0.7786    0.3824 C   0  0  0  0  0  0  0  0  0  0  0  0
   -3.7269    0.6465    0.5235 O   0  0  0  0  0  0  0  0  0  0  0  0
   -4.3816    0.6960   -0.7561 C   0  0  0  0  0  0  0  0  0  0  0  0
   -5.7384    1.3722   -0.5812 C   0  0  0  0  0  0  0  0  0  0  0  0
   -5.5441    2.7745   -0.3573 O   0  0  0  0  0  0  0  0  0  0  0  0
   -6.7829    3.4549   -0.1831 C   0  0  0  0  0  0  0  0  0  0  0  0
    0.0288    3.4067    1.0825 N   0  0  0  0  0  0  0  0  0  0  0  0
    1.3471    3.5931    0.9738 C   0  0  0  0  0  0  0  0  0  0  0  0
    2.2360    2.6994    0.5375 N   0  0  0  0  0  0  0  0  0  0  0  0
    1.7610    1.4960    0.1725 C   0  0  0  0  0  0  0  0  0  0  0  0
    2.6680    0.4935   -0.2646 N   0  0  0  0  0  0  0  0  0  0  0  0
    4.0287    0.6321   -0.6249 C   0  0  0  0  0  0  0  0  0  0  0  0
    4.5537    1.8091   -1.1703 C   0  0  0  0  0  0  0  0  0  0  0  0
    5.8915    1.8850   -1.5734 C   0  0  0  0  0  0  0  0  0  0  0  0
    6.7208    0.7706   -1.4616 C   0  0  0  0  0  0  0  0  0  0  0  0
    6.2076   -0.4222   -0.9585 C   0  0  0  0  0  0  0  0  0  0  0  0
    4.8674   -0.4918   -0.5561 C   0  0  0  0  0  0  0  0  0  0  0  0
    7.0494   -1.5783   -0.8574 C   0  0  0  0  0  0  0  0  0  0  0  0
    7.7557   -2.5468   -0.7682 C   0  0  0  0  0  0  0  0  0  0  0  0
   -1.8043   -4.6979    3.3051 H   0  0  0  0  0  0  0  0  0  0  0  0
   -0.2610   -3.8115    3.5285 H   0  0  0  0  0  0  0  0  0  0  0  0
   -0.2521   -5.5169    3.0338 H   0  0  0  0  0  0  0  0  0  0  0  0
   -0.9020   -2.1654    1.8957 H   0  0  0  0  0  0  0  0  0  0  0  0
   -2.4678   -2.9831    1.7700 H   0  0  0  0  0  0  0  0  0  0  0  0
   -0.5143   -2.6915   -0.5962 H   0  0  0  0  0  0  0  0  0  0  0  0
   -2.0719   -3.4510   -0.6246 H   0  0  0  0  0  0  0  0  0  0  0  0
    0.4476   -0.8144   -0.5903 H   0  0  0  0  0  0  0  0  0  0  0  0
   -2.4578    2.7824    1.1439 H   0  0  0  0  0  0  0  0  0  0  0  0
   -3.7893    1.2497   -1.4963 H   0  0  0  0  0  0  0  0  0  0  0  0
   -4.5318   -0.3325   -1.1040 H   0  0  0  0  0  0  0  0  0  0  0  0
   -6.2684    0.9418    0.2752 H   0  0  0  0  0  0  0  0  0  0  0  0
   -6.3359    1.2381   -1.4900 H   0  0  0  0  0  0  0  0  0  0  0  0
   -7.3259    3.0440    0.6712 H   0  0  0  0  0  0  0  0  0  0  0  0
   -6.5721    4.5112    0.0118 H   0  0  0  0  0  0  0  0  0  0  0  0
   -7.3919    3.3813   -1.0885 H   0  0  0  0  0  0  0  0  0  0  0  0
    1.7322    4.5607    1.2670 H   0  0  0  0  0  0  0  0  0  0  0  0
    2.5195   -0.3436    0.2870 H   0  0  0  0  0  0  0  0  0  0  0  0
    3.9247    2.6875   -1.2939 H   0  0  0  0  0  0  0  0  0  0  0  0
    6.2793    2.8150   -1.9797 H   0  0  0  0  0  0  0  0  0  0  0  0
    7.7601    0.8359   -1.7761 H   0  0  0  0  0  0  0  0  0  0  0  0
    4.4819   -1.4353   -0.1803 H   0  0  0  0  0  0  0  0  0  0  0  0
    8.3830   -3.4020   -0.6845 H   0  0  0  0  0  0  0  0  0  0  0  0
  1  2  1  0
  2  3  1  0
  3  4  1  0
  4  5  1  0
  5  6  1  0
  6  7  2  0
  7  8  1  0
  8  9  2  0
  9 10  1  0
 10 11  2  0
 11 12  1  0
 12 13  1  0
 13 14  1  0
 14 15  1  0
 15 16  1  0
  9 17  1  0
 17 18  2  0
 18 19  1  0
 19 20  2  0
 20 21  1  0
 21 22  1  0
 22 23  2  0
 23 24  1  0
 24 25  2  0
 25 26  1  0
 26 27  2  0
 26 28  1  0
 28 29  3  0
 11  6  1  0
 20  8  1  0
 27 22  1  0
  1 30  1  0
  1 31  1  0
  1 32  1  0
  3 33  1  0
  3 34  1  0
  4 35  1  0
  4 36  1  0
  7 37  1  0
 10 38  1  0
 13 39  1  0
 13 40  1  0
 14 41  1  0
 14 42  1  0
 16 43  1  0
 16 44  1  0
 16 45  1  0
 18 46  1  0
 21 47  1  0
 23 48  1  0
 24 49  1  0
 25 50  1  0
 27 51  1  0
 29 52  1  0
M  END
>  <energy_abs>  (240) 
58.66264458549837

>  <SMILES>  (240) 
COCCOc1cc2c(cc1OCCOC)ncnc2Nc3cccc(c3)C#C

>  <cluster_no>  (240) 
240

>  <fda_drugs_id>  (240) 
AAKJLRGGTJKAMG-UHFFFAOYSA-N

>  <initial_conformation_id>  (240) 
57

>  <minimize_method>  (240) 
MMFF

$$$$

     RDKit          3D

 52 54  0  0  0  0  0  0  0  0999 V2000
   -1.9721   -5.6089    0.0090 C   0  0  0  0  0  0  0  0  0  0  0  0
   -2.8249   -4.6162    0.5627 O   0  0  0  0  0  0  0  0  0  0  0  0
   -2.2207   -3.8722    1.6285 C   0  0  0  0  0  0  0  0  0  0  0  0
   -1.2818   -2.7698    1.1276 C   0  0  0  0  0  0  0  0  0  0  0  0
   -2.0647   -1.7535    0.4844 O   0  0  0  0  0  0  0  0  0  0  0  0
   -1.4519   -0.5300    0.3923 C   0  0  0  0  0  0  0  0  0  0  0  0
   -0.1251   -0.3866   -0.0144 C   0  0  0  0  0  0  0  0  0  0  0  0
    0.4592    0.8984   -0.1360 C   0  0  0  0  0  0  0  0  0  0  0  0
   -0.3094    2.0314    0.1609 C   0  0  0  0  0  0  0  0  0  0  0  0
   -1.6363    1.8681    0.5431 C   0  0  0  0  0  0  0  0  0  0  0  0
   -2.2274    0.6064    0.6560 C   0  0  0  0  0  0  0  0  0  0  0  0
   -3.5241    0.3719    1.0302 O   0  0  0  0  0  0  0  0  0  0  0  0
   -4.3994    1.4735    1.2622 C   0  0  0  0  0  0  0  0  0  0  0  0
   -5.0102    1.9889   -0.0414 C   0  0  0  0  0  0  0  0  0  0  0  0
   -5.8723    3.1049    0.1828 O   0  0  0  0  0  0  0  0  0  0  0  0
   -5.1726    4.3413    0.2343 C   0  0  0  0  0  0  0  0  0  0  0  0
    0.1777    3.2727    0.0896 N   0  0  0  0  0  0  0  0  0  0  0  0
    1.4581    3.3959   -0.2750 C   0  0  0  0  0  0  0  0  0  0  0  0
    2.2873    2.3980   -0.5886 N   0  0  0  0  0  0  0  0  0  0  0  0
    1.7888    1.1506   -0.5311 C   0  0  0  0  0  0  0  0  0  0  0  0
    2.6152    0.0517   -0.8947 N   0  0  0  0  0  0  0  0  0  0  0  0
    4.0217    0.0256   -1.0416 C   0  0  0  0  0  0  0  0  0  0  0  0
    4.6018   -0.9575   -1.8608 C   0  0  0  0  0  0  0  0  0  0  0  0
    5.9896   -1.0693   -1.9833 C   0  0  0  0  0  0  0  0  0  0  0  0
    6.8222   -0.2129   -1.2654 C   0  0  0  0  0  0  0  0  0  0  0  0
    6.2660    0.7459   -0.4182 C   0  0  0  0  0  0  0  0  0  0  0  0
    4.8755    0.8533   -0.2997 C   0  0  0  0  0  0  0  0  0  0  0  0
    7.1178    1.6123    0.3397 C   0  0  0  0  0  0  0  0  0  0  0  0
    7.8309    2.3404    0.9760 C   0  0  0  0  0  0  0  0  0  0  0  0
   -2.5398   -6.1613   -0.7469 H   0  0  0  0  0  0  0  0  0  0  0  0
   -1.6455   -6.3140    0.7817 H   0  0  0  0  0  0  0  0  0  0  0  0
   -1.1036   -5.1564   -0.4785 H   0  0  0  0  0  0  0  0  0  0  0  0
   -1.6901   -4.5562    2.3034 H   0  0  0  0  0  0  0  0  0  0  0  0
   -3.0441   -3.4155    2.1918 H   0  0  0  0  0  0  0  0  0  0  0  0
   -0.7468   -2.3499    1.9907 H   0  0  0  0  0  0  0  0  0  0  0  0
   -0.5618   -3.1762    0.4085 H   0  0  0  0  0  0  0  0  0  0  0  0
    0.4655   -1.2679   -0.2449 H   0  0  0  0  0  0  0  0  0  0  0  0
   -2.1946    2.7748    0.7527 H   0  0  0  0  0  0  0  0  0  0  0  0
   -3.9287    2.2574    1.8644 H   0  0  0  0  0  0  0  0  0  0  0  0
   -5.2146    1.1012    1.8945 H   0  0  0  0  0  0  0  0  0  0  0  0
   -4.2475    2.2326   -0.7897 H   0  0  0  0  0  0  0  0  0  0  0  0
   -5.6170    1.1903   -0.4832 H   0  0  0  0  0  0  0  0  0  0  0  0
   -5.9011    5.1400    0.3966 H   0  0  0  0  0  0  0  0  0  0  0  0
   -4.4563    4.3532    1.0595 H   0  0  0  0  0  0  0  0  0  0  0  0
   -4.6577    4.5293   -0.7130 H   0  0  0  0  0  0  0  0  0  0  0  0
    1.8611    4.4016   -0.3234 H   0  0  0  0  0  0  0  0  0  0  0  0
    2.1561   -0.4647   -1.6388 H   0  0  0  0  0  0  0  0  0  0  0  0
    3.9754   -1.6489   -2.4200 H   0  0  0  0  0  0  0  0  0  0  0  0
    6.4198   -1.8279   -2.6326 H   0  0  0  0  0  0  0  0  0  0  0  0
    7.9013   -0.3042   -1.3617 H   0  0  0  0  0  0  0  0  0  0  0  0
    4.4615    1.5889    0.3864 H   0  0  0  0  0  0  0  0  0  0  0  0
    8.4608    2.9879    1.5416 H   0  0  0  0  0  0  0  0  0  0  0  0
  1  2  1  0
  2  3  1  0
  3  4  1  0
  4  5  1  0
  5  6  1  0
  6  7  2  0
  7  8  1  0
  8  9  2  0
  9 10  1  0
 10 11  2  0
 11 12  1  0
 12 13  1  0
 13 14  1  0
 14 15  1  0
 15 16  1  0
  9 17  1  0
 17 18  2  0
 18 19  1  0
 19 20  2  0
 20 21  1  0
 21 22  1  0
 22 23  2  0
 23 24  1  0
 24 25  2  0
 25 26  1  0
 26 27  2  0
 26 28  1  0
 28 29  3  0
 11  6  1  0
 20  8  1  0
 27 22  1  0
  1 30  1  0
  1 31  1  0
  1 32  1  0
  3 33  1  0
  3 34  1  0
  4 35  1  0
  4 36  1  0
  7 37  1  0
 10 38  1  0
 13 39  1  0
 13 40  1  0
 14 41  1  0
 14 42  1  0
 16 43  1  0
 16 44  1  0
 16 45  1  0
 18 46  1  0
 21 47  1  0
 23 48  1  0
 24 49  1  0
 25 50  1  0
 27 51  1  0
 29 52  1  0
M  END
>  <energy_abs>  (241) 
63.42968847818304

>  <SMILES>  (241) 
COCCOc1cc2c(cc1OCCOC)ncnc2Nc3cccc(c3)C#C

>  <cluster_no>  (241) 
241

>  <fda_drugs_id>  (241) 
AAKJLRGGTJKAMG-UHFFFAOYSA-N

>  <initial_conformation_id>  (241) 
56

>  <minimize_method>  (241) 
MMFF

$$$$

     RDKit          3D

 52 54  0  0  0  0  0  0  0  0999 V2000
   -1.3850   -5.7536    0.7928 C   0  0  0  0  0  0  0  0  0  0  0  0
   -0.7080   -4.6949    0.1287 O   0  0  0  0  0  0  0  0  0  0  0  0
   -1.5418   -3.5583   -0.1073 C   0  0  0  0  0  0  0  0  0  0  0  0
   -1.7186   -2.6987    1.1454 C   0  0  0  0  0  0  0  0  0  0  0  0
   -2.4367   -1.5010    0.8615 O   0  0  0  0  0  0  0  0  0  0  0  0
   -1.7746   -0.4173    0.3447 C   0  0  0  0  0  0  0  0  0  0  0  0
   -0.4011   -0.3608    0.1046 C   0  0  0  0  0  0  0  0  0  0  0  0
    0.1997    0.7985   -0.4499 C   0  0  0  0  0  0  0  0  0  0  0  0
   -0.5956    1.9146   -0.7314 C   0  0  0  0  0  0  0  0  0  0  0  0
   -1.9611    1.8473   -0.4806 C   0  0  0  0  0  0  0  0  0  0  0  0
   -2.5678    0.7018    0.0427 C   0  0  0  0  0  0  0  0  0  0  0  0
   -3.9066    0.5630    0.2991 O   0  0  0  0  0  0  0  0  0  0  0  0
   -4.8195    1.6210   -0.0027 C   0  0  0  0  0  0  0  0  0  0  0  0
   -5.0253    2.5337    1.2071 C   0  0  0  0  0  0  0  0  0  0  0  0
   -4.0073    3.5350    1.2457 O   0  0  0  0  0  0  0  0  0  0  0  0
   -4.1067    4.3421    2.4117 C   0  0  0  0  0  0  0  0  0  0  0  0
   -0.0946    3.0456   -1.2365 N   0  0  0  0  0  0  0  0  0  0  0  0
    1.2232    3.0773   -1.4573 C   0  0  0  0  0  0  0  0  0  0  0  0
    2.0824    2.0802   -1.2377 N   0  0  0  0  0  0  0  0  0  0  0  0
    1.5727    0.9375   -0.7448 C   0  0  0  0  0  0  0  0  0  0  0  0
    2.4327   -0.1754   -0.5319 N   0  0  0  0  0  0  0  0  0  0  0  0
    3.8460   -0.2057   -0.5037 C   0  0  0  0  0  0  0  0  0  0  0  0
    4.5029   -1.4194   -0.7661 C   0  0  0  0  0  0  0  0  0  0  0  0
    5.8944   -1.5222   -0.6867 C   0  0  0  0  0  0  0  0  0  0  0  0
    6.6525   -0.4140   -0.3173 C   0  0  0  0  0  0  0  0  0  0  0  0
    6.0163    0.7903   -0.0156 C   0  0  0  0  0  0  0  0  0  0  0  0
    4.6218    0.8865   -0.0967 C   0  0  0  0  0  0  0  0  0  0  0  0
    6.7896    1.9240    0.3873 C   0  0  0  0  0  0  0  0  0  0  0  0
    7.4349    2.8773    0.7243 C   0  0  0  0  0  0  0  0  0  0  0  0
   -1.6724   -5.4578    1.8062 H   0  0  0  0  0  0  0  0  0  0  0  0
   -0.6979   -6.6031    0.8656 H   0  0  0  0  0  0  0  0  0  0  0  0
   -2.2666   -6.0666    0.2233 H   0  0  0  0  0  0  0  0  0  0  0  0
   -2.5138   -3.8613   -0.5190 H   0  0  0  0  0  0  0  0  0  0  0  0
   -1.0564   -2.9734   -0.8961 H   0  0  0  0  0  0  0  0  0  0  0  0
   -0.7738   -2.5121    1.6689 H   0  0  0  0  0  0  0  0  0  0  0  0
   -2.3263   -3.2537    1.8692 H   0  0  0  0  0  0  0  0  0  0  0  0
    0.2375   -1.2027    0.3483 H   0  0  0  0  0  0  0  0  0  0  0  0
   -2.5389    2.7387   -0.7001 H   0  0  0  0  0  0  0  0  0  0  0  0
   -4.5507    2.1647   -0.9135 H   0  0  0  0  0  0  0  0  0  0  0  0
   -5.7736    1.1234   -0.2121 H   0  0  0  0  0  0  0  0  0  0  0  0
   -5.0002    1.9490    2.1332 H   0  0  0  0  0  0  0  0  0  0  0  0
   -5.9938    3.0381    1.1197 H   0  0  0  0  0  0  0  0  0  0  0  0
   -5.0865    4.8276    2.4597 H   0  0  0  0  0  0  0  0  0  0  0  0
   -3.3352    5.1158    2.3629 H   0  0  0  0  0  0  0  0  0  0  0  0
   -3.9391    3.7380    3.3086 H   0  0  0  0  0  0  0  0  0  0  0  0
    1.6322    3.9990   -1.8570 H   0  0  0  0  0  0  0  0  0  0  0  0
    2.0590   -0.9763   -1.0316 H   0  0  0  0  0  0  0  0  0  0  0  0
    3.9330   -2.3040   -1.0398 H   0  0  0  0  0  0  0  0  0  0  0  0
    6.3835   -2.4671   -0.9066 H   0  0  0  0  0  0  0  0  0  0  0  0
    7.7346   -0.4976   -0.2541 H   0  0  0  0  0  0  0  0  0  0  0  0
    4.1423    1.8252    0.1697 H   0  0  0  0  0  0  0  0  0  0  0  0
    8.0016    3.7266    1.0221 H   0  0  0  0  0  0  0  0  0  0  0  0
  1  2  1  0
  2  3  1  0
  3  4  1  0
  4  5  1  0
  5  6  1  0
  6  7  2  0
  7  8  1  0
  8  9  2  0
  9 10  1  0
 10 11  2  0
 11 12  1  0
 12 13  1  0
 13 14  1  0
 14 15  1  0
 15 16  1  0
  9 17  1  0
 17 18  2  0
 18 19  1  0
 19 20  2  0
 20 21  1  0
 21 22  1  0
 22 23  2  0
 23 24  1  0
 24 25  2  0
 25 26  1  0
 26 27  2  0
 26 28  1  0
 28 29  3  0
 11  6  1  0
 20  8  1  0
 27 22  1  0
  1 30  1  0
  1 31  1  0
  1 32  1  0
  3 33  1  0
  3 34  1  0
  4 35  1  0
  4 36  1  0
  7 37  1  0
 10 38  1  0
 13 39  1  0
 13 40  1  0
 14 41  1  0
 14 42  1  0
 16 43  1  0
 16 44  1  0
 16 45  1  0
 18 46  1  0
 21 47  1  0
 23 48  1  0
 24 49  1  0
 25 50  1  0
 27 51  1  0
 29 52  1  0
M  END
>  <energy_abs>  (242) 
61.97864563981032

>  <SMILES>  (242) 
COCCOc1cc2c(cc1OCCOC)ncnc2Nc3cccc(c3)C#C

>  <cluster_no>  (242) 
242

>  <fda_drugs_id>  (242) 
AAKJLRGGTJKAMG-UHFFFAOYSA-N

>  <initial_conformation_id>  (242) 
54

>  <minimize_method>  (242) 
MMFF

$$$$

     RDKit          3D

 52 54  0  0  0  0  0  0  0  0999 V2000
   -1.0799   -5.4371    0.8642 C   0  0  0  0  0  0  0  0  0  0  0  0
   -1.4161   -4.5401    1.9145 O   0  0  0  0  0  0  0  0  0  0  0  0
   -2.1981   -3.4319    1.4690 C   0  0  0  0  0  0  0  0  0  0  0  0
   -1.3234   -2.2989    0.9334 C   0  0  0  0  0  0  0  0  0  0  0  0
   -2.1725   -1.2272    0.5307 O   0  0  0  0  0  0  0  0  0  0  0  0
   -1.5915   -0.1005    0.0095 C   0  0  0  0  0  0  0  0  0  0  0  0
   -0.2165    0.1027   -0.1130 C   0  0  0  0  0  0  0  0  0  0  0  0
    0.2992    1.3091   -0.6542 C   0  0  0  0  0  0  0  0  0  0  0  0
   -0.5879    2.3156   -1.0535 C   0  0  0  0  0  0  0  0  0  0  0  0
   -1.9543    2.0991   -0.9298 C   0  0  0  0  0  0  0  0  0  0  0  0
   -2.4716    0.9115   -0.4045 C   0  0  0  0  0  0  0  0  0  0  0  0
   -3.8073    0.6339   -0.2669 O   0  0  0  0  0  0  0  0  0  0  0  0
   -4.7649    1.6940   -0.3443 C   0  0  0  0  0  0  0  0  0  0  0  0
   -4.7881    2.5585    0.9218 C   0  0  0  0  0  0  0  0  0  0  0  0
   -5.5139    1.9593    2.0015 O   0  0  0  0  0  0  0  0  0  0  0  0
   -4.8508    0.8413    2.5786 C   0  0  0  0  0  0  0  0  0  0  0  0
   -0.1779    3.4844   -1.5513 N   0  0  0  0  0  0  0  0  0  0  0  0
    1.1428    3.6670   -1.6486 C   0  0  0  0  0  0  0  0  0  0  0  0
    2.0861    2.7868   -1.3079 N   0  0  0  0  0  0  0  0  0  0  0  0
    1.6685    1.6047   -0.8215 C   0  0  0  0  0  0  0  0  0  0  0  0
    2.6285    0.6104   -0.4864 N   0  0  0  0  0  0  0  0  0  0  0  0
    4.0236    0.7605   -0.3100 C   0  0  0  0  0  0  0  0  0  0  0  0
    4.6052    1.9493    0.1473 C   0  0  0  0  0  0  0  0  0  0  0  0
    5.9812    2.0389    0.3786 C   0  0  0  0  0  0  0  0  0  0  0  0
    6.7964    0.9270    0.1804 C   0  0  0  0  0  0  0  0  0  0  0  0
    6.2323   -0.2770   -0.2375 C   0  0  0  0  0  0  0  0  0  0  0  0
    4.8543   -0.3609   -0.4681 C   0  0  0  0  0  0  0  0  0  0  0  0
    7.0600   -1.4295   -0.4236 C   0  0  0  0  0  0  0  0  0  0  0  0
    7.7551   -2.3963   -0.5792 C   0  0  0  0  0  0  0  0  0  0  0  0
   -0.4722   -4.9400    0.1034 H   0  0  0  0  0  0  0  0  0  0  0  0
   -1.9851   -5.8533    0.4117 H   0  0  0  0  0  0  0  0  0  0  0  0
   -0.4966   -6.2583    1.2896 H   0  0  0  0  0  0  0  0  0  0  0  0
   -2.9444   -3.7453    0.7285 H   0  0  0  0  0  0  0  0  0  0  0  0
   -2.7645   -3.0633    2.3321 H   0  0  0  0  0  0  0  0  0  0  0  0
   -0.6382   -1.9751    1.7264 H   0  0  0  0  0  0  0  0  0  0  0  0
   -0.7340   -2.6556    0.0813 H   0  0  0  0  0  0  0  0  0  0  0  0
    0.4837   -0.6534    0.2264 H   0  0  0  0  0  0  0  0  0  0  0  0
   -2.6051    2.8990   -1.2668 H   0  0  0  0  0  0  0  0  0  0  0  0
   -5.7418    1.2110   -0.4617 H   0  0  0  0  0  0  0  0  0  0  0  0
   -4.6097    2.2947   -1.2461 H   0  0  0  0  0  0  0  0  0  0  0  0
   -5.3165    3.4895    0.6909 H   0  0  0  0  0  0  0  0  0  0  0  0
   -3.7843    2.8265    1.2674 H   0  0  0  0  0  0  0  0  0  0  0  0
   -4.9163   -0.0279    1.9195 H   0  0  0  0  0  0  0  0  0  0  0  0
   -3.8064    1.0748    2.8064 H   0  0  0  0  0  0  0  0  0  0  0  0
   -5.3608    0.5912    3.5131 H   0  0  0  0  0  0  0  0  0  0  0  0
    1.4799    4.6188   -2.0446 H   0  0  0  0  0  0  0  0  0  0  0  0
    2.4134   -0.2349   -1.0051 H   0  0  0  0  0  0  0  0  0  0  0  0
    3.9908    2.8257    0.3363 H   0  0  0  0  0  0  0  0  0  0  0  0
    6.4112    2.9765    0.7211 H   0  0  0  0  0  0  0  0  0  0  0  0
    7.8651    1.0031    0.3640 H   0  0  0  0  0  0  0  0  0  0  0  0
    4.4305   -1.3128   -0.7779 H   0  0  0  0  0  0  0  0  0  0  0  0
    8.3741   -3.2521   -0.7162 H   0  0  0  0  0  0  0  0  0  0  0  0
  1  2  1  0
  2  3  1  0
  3  4  1  0
  4  5  1  0
  5  6  1  0
  6  7  2  0
  7  8  1  0
  8  9  2  0
  9 10  1  0
 10 11  2  0
 11 12  1  0
 12 13  1  0
 13 14  1  0
 14 15  1  0
 15 16  1  0
  9 17  1  0
 17 18  2  0
 18 19  1  0
 19 20  2  0
 20 21  1  0
 21 22  1  0
 22 23  2  0
 23 24  1  0
 24 25  2  0
 25 26  1  0
 26 27  2  0
 26 28  1  0
 28 29  3  0
 11  6  1  0
 20  8  1  0
 27 22  1  0
  1 30  1  0
  1 31  1  0
  1 32  1  0
  3 33  1  0
  3 34  1  0
  4 35  1  0
  4 36  1  0
  7 37  1  0
 10 38  1  0
 13 39  1  0
 13 40  1  0
 14 41  1  0
 14 42  1  0
 16 43  1  0
 16 44  1  0
 16 45  1  0
 18 46  1  0
 21 47  1  0
 23 48  1  0
 24 49  1  0
 25 50  1  0
 27 51  1  0
 29 52  1  0
M  END
>  <energy_abs>  (243) 
60.761203110664866

>  <SMILES>  (243) 
COCCOc1cc2c(cc1OCCOC)ncnc2Nc3cccc(c3)C#C

>  <cluster_no>  (243) 
243

>  <fda_drugs_id>  (243) 
AAKJLRGGTJKAMG-UHFFFAOYSA-N

>  <initial_conformation_id>  (243) 
53

>  <minimize_method>  (243) 
MMFF

$$$$

     RDKit          3D

 52 54  0  0  0  0  0  0  0  0999 V2000
   -2.7042   -5.7437    1.2401 C   0  0  0  0  0  0  0  0  0  0  0  0
   -1.9156   -4.6510    0.7891 O   0  0  0  0  0  0  0  0  0  0  0  0
   -1.5382   -3.7909    1.8698 C   0  0  0  0  0  0  0  0  0  0  0  0
   -0.7922   -2.5768    1.3158 C   0  0  0  0  0  0  0  0  0  0  0  0
   -1.7483   -1.6650    0.7664 O   0  0  0  0  0  0  0  0  0  0  0  0
   -1.2948   -0.4449    0.3367 C   0  0  0  0  0  0  0  0  0  0  0  0
    0.0482   -0.1340    0.1193 C   0  0  0  0  0  0  0  0  0  0  0  0
    0.4371    1.1516   -0.3371 C   0  0  0  0  0  0  0  0  0  0  0  0
   -0.5424    2.1277   -0.5531 C   0  0  0  0  0  0  0  0  0  0  0  0
   -1.8766    1.8013   -0.3444 C   0  0  0  0  0  0  0  0  0  0  0  0
   -2.2722    0.5297    0.0838 C   0  0  0  0  0  0  0  0  0  0  0  0
   -3.5698    0.1545    0.3217 O   0  0  0  0  0  0  0  0  0  0  0  0
   -4.6295    0.9826   -0.1525 C   0  0  0  0  0  0  0  0  0  0  0  0
   -5.0948    1.9483    0.9335 C   0  0  0  0  0  0  0  0  0  0  0  0
   -6.1397    2.7721    0.4171 O   0  0  0  0  0  0  0  0  0  0  0  0
   -6.6175    3.6848    1.3969 C   0  0  0  0  0  0  0  0  0  0  0  0
   -0.2490    3.3678   -0.9522 N   0  0  0  0  0  0  0  0  0  0  0  0
    1.0439    3.6499   -1.1407 C   0  0  0  0  0  0  0  0  0  0  0  0
    2.0658    2.8072   -0.9781 N   0  0  0  0  0  0  0  0  0  0  0  0
    1.7650    1.5555   -0.5891 C   0  0  0  0  0  0  0  0  0  0  0  0
    2.8083    0.5988   -0.4471 N   0  0  0  0  0  0  0  0  0  0  0  0
    4.2029    0.8226   -0.3816 C   0  0  0  0  0  0  0  0  0  0  0  0
    4.7573    1.9951    0.1463 C   0  0  0  0  0  0  0  0  0  0  0  0
    6.1418    2.1519    0.2622 C   0  0  0  0  0  0  0  0  0  0  0  0
    6.9959    1.1220   -0.1254 C   0  0  0  0  0  0  0  0  0  0  0  0
    6.4635   -0.0683   -0.6176 C   0  0  0  0  0  0  0  0  0  0  0  0
    5.0768   -0.2195   -0.7321 C   0  0  0  0  0  0  0  0  0  0  0  0
    7.3335   -1.1385   -0.9991 C   0  0  0  0  0  0  0  0  0  0  0  0
    8.0637   -2.0364   -1.3195 C   0  0  0  0  0  0  0  0  0  0  0  0
   -2.1474   -6.3447    1.9654 H   0  0  0  0  0  0  0  0  0  0  0  0
   -2.9473   -6.3716    0.3788 H   0  0  0  0  0  0  0  0  0  0  0  0
   -3.6373   -5.3847    1.6847 H   0  0  0  0  0  0  0  0  0  0  0  0
   -2.4343   -3.4720    2.4143 H   0  0  0  0  0  0  0  0  0  0  0  0
   -0.8782   -4.3514    2.5409 H   0  0  0  0  0  0  0  0  0  0  0  0
   -0.2543   -2.0878    2.1363 H   0  0  0  0  0  0  0  0  0  0  0  0
   -0.0964   -2.9005    0.5336 H   0  0  0  0  0  0  0  0  0  0  0  0
    0.8188   -0.8745    0.3047 H   0  0  0  0  0  0  0  0  0  0  0  0
   -2.6040    2.5882   -0.5193 H   0  0  0  0  0  0  0  0  0  0  0  0
   -4.3910    1.4906   -1.0947 H   0  0  0  0  0  0  0  0  0  0  0  0
   -5.4649    0.3171   -0.4030 H   0  0  0  0  0  0  0  0  0  0  0  0
   -5.4567    1.3815    1.7999 H   0  0  0  0  0  0  0  0  0  0  0  0
   -4.2635    2.5755    1.2742 H   0  0  0  0  0  0  0  0  0  0  0  0
   -7.4125    4.2864    0.9483 H   0  0  0  0  0  0  0  0  0  0  0  0
   -5.8143    4.3531    1.7218 H   0  0  0  0  0  0  0  0  0  0  0  0
   -7.0294    3.1447    2.2548 H   0  0  0  0  0  0  0  0  0  0  0  0
    1.2854    4.6582   -1.4590 H   0  0  0  0  0  0  0  0  0  0  0  0
    2.5918   -0.2012   -1.0339 H   0  0  0  0  0  0  0  0  0  0  0  0
    4.1149    2.8054    0.4809 H   0  0  0  0  0  0  0  0  0  0  0  0
    6.5488    3.0768    0.6623 H   0  0  0  0  0  0  0  0  0  0  0  0
    8.0713    1.2500   -0.0314 H   0  0  0  0  0  0  0  0  0  0  0  0
    4.6794   -1.1607   -1.1038 H   0  0  0  0  0  0  0  0  0  0  0  0
    8.7128   -2.8314   -1.6041 H   0  0  0  0  0  0  0  0  0  0  0  0
  1  2  1  0
  2  3  1  0
  3  4  1  0
  4  5  1  0
  5  6  1  0
  6  7  2  0
  7  8  1  0
  8  9  2  0
  9 10  1  0
 10 11  2  0
 11 12  1  0
 12 13  1  0
 13 14  1  0
 14 15  1  0
 15 16  1  0
  9 17  1  0
 17 18  2  0
 18 19  1  0
 19 20  2  0
 20 21  1  0
 21 22  1  0
 22 23  2  0
 23 24  1  0
 24 25  2  0
 25 26  1  0
 26 27  2  0
 26 28  1  0
 28 29  3  0
 11  6  1  0
 20  8  1  0
 27 22  1  0
  1 30  1  0
  1 31  1  0
  1 32  1  0
  3 33  1  0
  3 34  1  0
  4 35  1  0
  4 36  1  0
  7 37  1  0
 10 38  1  0
 13 39  1  0
 13 40  1  0
 14 41  1  0
 14 42  1  0
 16 43  1  0
 16 44  1  0
 16 45  1  0
 18 46  1  0
 21 47  1  0
 23 48  1  0
 24 49  1  0
 25 50  1  0
 27 51  1  0
 29 52  1  0
M  END
>  <energy_abs>  (244) 
59.09825253623916

>  <SMILES>  (244) 
COCCOc1cc2c(cc1OCCOC)ncnc2Nc3cccc(c3)C#C

>  <cluster_no>  (244) 
244

>  <fda_drugs_id>  (244) 
AAKJLRGGTJKAMG-UHFFFAOYSA-N

>  <initial_conformation_id>  (244) 
52

>  <minimize_method>  (244) 
MMFF

$$$$

     RDKit          3D

 52 54  0  0  0  0  0  0  0  0999 V2000
   -2.8835   -4.9347   -0.6930 C   0  0  0  0  0  0  0  0  0  0  0  0
   -3.1534   -4.5073    0.6358 O   0  0  0  0  0  0  0  0  0  0  0  0
   -2.2123   -3.5485    1.1188 C   0  0  0  0  0  0  0  0  0  0  0  0
   -2.4974   -2.1360    0.6084 C   0  0  0  0  0  0  0  0  0  0  0  0
   -1.5411   -1.2428    1.1965 O   0  0  0  0  0  0  0  0  0  0  0  0
   -1.2474   -0.1662    0.4068 C   0  0  0  0  0  0  0  0  0  0  0  0
    0.1066    0.0803    0.1901 C   0  0  0  0  0  0  0  0  0  0  0  0
    0.5318    1.1587   -0.6283 C   0  0  0  0  0  0  0  0  0  0  0  0
   -0.4294    1.9802   -1.2354 C   0  0  0  0  0  0  0  0  0  0  0  0
   -1.7732    1.7396   -0.9819 C   0  0  0  0  0  0  0  0  0  0  0  0
   -2.1864    0.7023   -0.1428 C   0  0  0  0  0  0  0  0  0  0  0  0
   -3.5318    0.5724    0.0753 O   0  0  0  0  0  0  0  0  0  0  0  0
   -3.8778    1.0921    1.3691 C   0  0  0  0  0  0  0  0  0  0  0  0
   -5.4012    1.1446    1.4783 C   0  0  0  0  0  0  0  0  0  0  0  0
   -5.8538    1.5452    2.7714 O   0  0  0  0  0  0  0  0  0  0  0  0
   -5.6827    2.9339    3.0242 C   0  0  0  0  0  0  0  0  0  0  0  0
   -0.1071    2.9946   -2.0410 N   0  0  0  0  0  0  0  0  0  0  0  0
    1.1965    3.1990   -2.2565 C   0  0  0  0  0  0  0  0  0  0  0  0
    2.2028    2.4961   -1.7309 N   0  0  0  0  0  0  0  0  0  0  0  0
    1.8749    1.4848   -0.9068 C   0  0  0  0  0  0  0  0  0  0  0  0
    2.9048    0.7325   -0.2776 N   0  0  0  0  0  0  0  0  0  0  0  0
    4.2884    0.7256   -0.5704 C   0  0  0  0  0  0  0  0  0  0  0  0
    4.7887    0.9253   -1.8623 C   0  0  0  0  0  0  0  0  0  0  0  0
    6.1604    0.8484   -2.1255 C   0  0  0  0  0  0  0  0  0  0  0  0
    7.0531    0.5463   -1.0994 C   0  0  0  0  0  0  0  0  0  0  0  0
    6.5720    0.3086    0.1863 C   0  0  0  0  0  0  0  0  0  0  0  0
    5.1983    0.3851    0.4436 C   0  0  0  0  0  0  0  0  0  0  0  0
    7.4802   -0.0171    1.2433 C   0  0  0  0  0  0  0  0  0  0  0  0
    8.2390   -0.2885    2.1333 C   0  0  0  0  0  0  0  0  0  0  0  0
   -3.0118   -4.1115   -1.4007 H   0  0  0  0  0  0  0  0  0  0  0  0
   -3.5987   -5.7215   -0.9506 H   0  0  0  0  0  0  0  0  0  0  0  0
   -1.8726   -5.3464   -0.7691 H   0  0  0  0  0  0  0  0  0  0  0  0
   -1.1858   -3.8553    0.8795 H   0  0  0  0  0  0  0  0  0  0  0  0
   -2.2794   -3.5499    2.2131 H   0  0  0  0  0  0  0  0  0  0  0  0
   -2.4455   -2.1190   -0.4876 H   0  0  0  0  0  0  0  0  0  0  0  0
   -3.5104   -1.8466    0.9073 H   0  0  0  0  0  0  0  0  0  0  0  0
    0.8343   -0.5928    0.6376 H   0  0  0  0  0  0  0  0  0  0  0  0
   -2.5194    2.3865   -1.4382 H   0  0  0  0  0  0  0  0  0  0  0  0
   -3.4611    2.0988    1.4996 H   0  0  0  0  0  0  0  0  0  0  0  0
   -3.4762    0.4520    2.1653 H   0  0  0  0  0  0  0  0  0  0  0  0
   -5.8052    0.1420    1.2918 H   0  0  0  0  0  0  0  0  0  0  0  0
   -5.8305    1.7924    0.7030 H   0  0  0  0  0  0  0  0  0  0  0  0
   -6.1190    3.5360    2.2223 H   0  0  0  0  0  0  0  0  0  0  0  0
   -6.1966    3.1746    3.9589 H   0  0  0  0  0  0  0  0  0  0  0  0
   -4.6224    3.1736    3.1489 H   0  0  0  0  0  0  0  0  0  0  0  0
    1.4628    4.0163   -2.9184 H   0  0  0  0  0  0  0  0  0  0  0  0
    2.7425    0.7396    0.7244 H   0  0  0  0  0  0  0  0  0  0  0  0
    4.1130    1.1392   -2.6865 H   0  0  0  0  0  0  0  0  0  0  0  0
    6.5266    1.0178   -3.1341 H   0  0  0  0  0  0  0  0  0  0  0  0
    8.1180    0.4885   -1.3109 H   0  0  0  0  0  0  0  0  0  0  0  0
    4.8407    0.1829    1.4494 H   0  0  0  0  0  0  0  0  0  0  0  0
    8.9126   -0.5280    2.9226 H   0  0  0  0  0  0  0  0  0  0  0  0
  1  2  1  0
  2  3  1  0
  3  4  1  0
  4  5  1  0
  5  6  1  0
  6  7  2  0
  7  8  1  0
  8  9  2  0
  9 10  1  0
 10 11  2  0
 11 12  1  0
 12 13  1  0
 13 14  1  0
 14 15  1  0
 15 16  1  0
  9 17  1  0
 17 18  2  0
 18 19  1  0
 19 20  2  0
 20 21  1  0
 21 22  1  0
 22 23  2  0
 23 24  1  0
 24 25  2  0
 25 26  1  0
 26 27  2  0
 26 28  1  0
 28 29  3  0
 11  6  1  0
 20  8  1  0
 27 22  1  0
  1 30  1  0
  1 31  1  0
  1 32  1  0
  3 33  1  0
  3 34  1  0
  4 35  1  0
  4 36  1  0
  7 37  1  0
 10 38  1  0
 13 39  1  0
 13 40  1  0
 14 41  1  0
 14 42  1  0
 16 43  1  0
 16 44  1  0
 16 45  1  0
 18 46  1  0
 21 47  1  0
 23 48  1  0
 24 49  1  0
 25 50  1  0
 27 51  1  0
 29 52  1  0
M  END
>  <energy_abs>  (245) 
58.340358627398

>  <SMILES>  (245) 
COCCOc1cc2c(cc1OCCOC)ncnc2Nc3cccc(c3)C#C

>  <cluster_no>  (245) 
245

>  <fda_drugs_id>  (245) 
AAKJLRGGTJKAMG-UHFFFAOYSA-N

>  <initial_conformation_id>  (245) 
51

>  <minimize_method>  (245) 
MMFF

$$$$

     RDKit          3D

 52 54  0  0  0  0  0  0  0  0999 V2000
   -2.9338   -5.2218    2.0363 C   0  0  0  0  0  0  0  0  0  0  0  0
   -2.0110   -4.2932    1.4791 O   0  0  0  0  0  0  0  0  0  0  0  0
   -2.6306   -3.4880    0.4686 C   0  0  0  0  0  0  0  0  0  0  0  0
   -1.6676   -2.3881    0.0243 C   0  0  0  0  0  0  0  0  0  0  0  0
   -1.5650   -1.4126    1.0790 O   0  0  0  0  0  0  0  0  0  0  0  0
   -1.1759   -0.2017    0.5730 C   0  0  0  0  0  0  0  0  0  0  0  0
    0.1699    0.0366    0.3097 C   0  0  0  0  0  0  0  0  0  0  0  0
    0.5909    1.3008   -0.1762 C   0  0  0  0  0  0  0  0  0  0  0  0
   -0.3679    2.3051   -0.3981 C   0  0  0  0  0  0  0  0  0  0  0  0
   -1.7028    2.0444   -0.1153 C   0  0  0  0  0  0  0  0  0  0  0  0
   -2.1138    0.8113    0.3939 C   0  0  0  0  0  0  0  0  0  0  0  0
   -3.4331    0.5321    0.6286 O   0  0  0  0  0  0  0  0  0  0  0  0
   -4.0557    1.4297    1.5643 C   0  0  0  0  0  0  0  0  0  0  0  0
   -5.2441    2.1225    0.8967 C   0  0  0  0  0  0  0  0  0  0  0  0
   -6.3334    1.2025    0.7805 O   0  0  0  0  0  0  0  0  0  0  0  0
   -7.4201    1.7676    0.0554 C   0  0  0  0  0  0  0  0  0  0  0  0
   -0.0552    3.5096   -0.8771 N   0  0  0  0  0  0  0  0  0  0  0  0
    1.2357    3.7295   -1.1459 C   0  0  0  0  0  0  0  0  0  0  0  0
    2.2379    2.8648   -0.9701 N   0  0  0  0  0  0  0  0  0  0  0  0
    1.9231    1.6526   -0.4791 C   0  0  0  0  0  0  0  0  0  0  0  0
    2.9534    0.6945   -0.2656 N   0  0  0  0  0  0  0  0  0  0  0  0
    4.3015    0.7342   -0.6921 C   0  0  0  0  0  0  0  0  0  0  0  0
    4.7134    1.4066   -1.8497 C   0  0  0  0  0  0  0  0  0  0  0  0
    6.0468    1.3752   -2.2697 C   0  0  0  0  0  0  0  0  0  0  0  0
    6.9885    0.6432   -1.5501 C   0  0  0  0  0  0  0  0  0  0  0  0
    6.5929   -0.0671   -0.4179 C   0  0  0  0  0  0  0  0  0  0  0  0
    5.2569   -0.0317   -0.0016 C   0  0  0  0  0  0  0  0  0  0  0  0
    7.5530   -0.8329    0.3166 C   0  0  0  0  0  0  0  0  0  0  0  0
    8.3649   -1.4712    0.9316 C   0  0  0  0  0  0  0  0  0  0  0  0
   -2.4070   -5.8293    2.7779 H   0  0  0  0  0  0  0  0  0  0  0  0
   -3.7459   -4.6914    2.5460 H   0  0  0  0  0  0  0  0  0  0  0  0
   -3.3398   -5.8793    1.2582 H   0  0  0  0  0  0  0  0  0  0  0  0
   -2.8707   -4.1314   -0.3867 H   0  0  0  0  0  0  0  0  0  0  0  0
   -3.5539   -3.0434    0.8643 H   0  0  0  0  0  0  0  0  0  0  0  0
   -0.6704   -2.8066   -0.1611 H   0  0  0  0  0  0  0  0  0  0  0  0
   -2.0554   -1.9329   -0.8977 H   0  0  0  0  0  0  0  0  0  0  0  0
    0.8851   -0.7681    0.4739 H   0  0  0  0  0  0  0  0  0  0  0  0
   -2.4352    2.8233   -0.3117 H   0  0  0  0  0  0  0  0  0  0  0  0
   -3.3568    2.1780    1.9577 H   0  0  0  0  0  0  0  0  0  0  0  0
   -4.3981    0.8192    2.4077 H   0  0  0  0  0  0  0  0  0  0  0  0
   -5.5714    2.9685    1.5130 H   0  0  0  0  0  0  0  0  0  0  0  0
   -4.9645    2.4822   -0.1002 H   0  0  0  0  0  0  0  0  0  0  0  0
   -7.1181    1.9845   -0.9745 H   0  0  0  0  0  0  0  0  0  0  0  0
   -7.7785    2.6798    0.5456 H   0  0  0  0  0  0  0  0  0  0  0  0
   -8.2352    1.0397    0.0347 H   0  0  0  0  0  0  0  0  0  0  0  0
    1.4931    4.7013   -1.5485 H   0  0  0  0  0  0  0  0  0  0  0  0
    2.8763    0.3323    0.6794 H   0  0  0  0  0  0  0  0  0  0  0  0
    3.9974    1.9652   -2.4476 H   0  0  0  0  0  0  0  0  0  0  0  0
    6.3442    1.9195   -3.1623 H   0  0  0  0  0  0  0  0  0  0  0  0
    8.0234    0.6241   -1.8817 H   0  0  0  0  0  0  0  0  0  0  0  0
    4.9645   -0.6052    0.8753 H   0  0  0  0  0  0  0  0  0  0  0  0
    9.0907   -2.0353    1.4737 H   0  0  0  0  0  0  0  0  0  0  0  0
  1  2  1  0
  2  3  1  0
  3  4  1  0
  4  5  1  0
  5  6  1  0
  6  7  2  0
  7  8  1  0
  8  9  2  0
  9 10  1  0
 10 11  2  0
 11 12  1  0
 12 13  1  0
 13 14  1  0
 14 15  1  0
 15 16  1  0
  9 17  1  0
 17 18  2  0
 18 19  1  0
 19 20  2  0
 20 21  1  0
 21 22  1  0
 22 23  2  0
 23 24  1  0
 24 25  2  0
 25 26  1  0
 26 27  2  0
 26 28  1  0
 28 29  3  0
 11  6  1  0
 20  8  1  0
 27 22  1  0
  1 30  1  0
  1 31  1  0
  1 32  1  0
  3 33  1  0
  3 34  1  0
  4 35  1  0
  4 36  1  0
  7 37  1  0
 10 38  1  0
 13 39  1  0
 13 40  1  0
 14 41  1  0
 14 42  1  0
 16 43  1  0
 16 44  1  0
 16 45  1  0
 18 46  1  0
 21 47  1  0
 23 48  1  0
 24 49  1  0
 25 50  1  0
 27 51  1  0
 29 52  1  0
M  END
>  <energy_abs>  (246) 
60.798972221955495

>  <SMILES>  (246) 
COCCOc1cc2c(cc1OCCOC)ncnc2Nc3cccc(c3)C#C

>  <cluster_no>  (246) 
246

>  <fda_drugs_id>  (246) 
AAKJLRGGTJKAMG-UHFFFAOYSA-N

>  <initial_conformation_id>  (246) 
50

>  <minimize_method>  (246) 
MMFF

$$$$

     RDKit          3D

 52 54  0  0  0  0  0  0  0  0999 V2000
   -0.3065   -5.1672    0.6028 C   0  0  0  0  0  0  0  0  0  0  0  0
   -1.4480   -4.9334    1.4324 O   0  0  0  0  0  0  0  0  0  0  0  0
   -1.4726   -3.6220    2.0099 C   0  0  0  0  0  0  0  0  0  0  0  0
   -1.9202   -2.5347    1.0344 C   0  0  0  0  0  0  0  0  0  0  0  0
   -1.9237   -1.2832    1.7392 O   0  0  0  0  0  0  0  0  0  0  0  0
   -1.4794   -0.2651    0.9357 C   0  0  0  0  0  0  0  0  0  0  0  0
   -0.1091   -0.0230    0.8745 C   0  0  0  0  0  0  0  0  0  0  0  0
    0.3914    1.0356    0.0821 C   0  0  0  0  0  0  0  0  0  0  0  0
   -0.5075    1.8468   -0.6271 C   0  0  0  0  0  0  0  0  0  0  0  0
   -1.8754    1.6013   -0.5218 C   0  0  0  0  0  0  0  0  0  0  0  0
   -2.3833    0.5541    0.2540 C   0  0  0  0  0  0  0  0  0  0  0  0
   -3.7050    0.2361    0.3999 O   0  0  0  0  0  0  0  0  0  0  0  0
   -4.6989    1.0990   -0.1497 C   0  0  0  0  0  0  0  0  0  0  0  0
   -4.9941    2.2790    0.7789 C   0  0  0  0  0  0  0  0  0  0  0  0
   -6.0371    3.1109    0.2657 O   0  0  0  0  0  0  0  0  0  0  0  0
   -5.5693    4.0776   -0.6707 C   0  0  0  0  0  0  0  0  0  0  0  0
   -0.1051    2.8508   -1.4111 N   0  0  0  0  0  0  0  0  0  0  0  0
    1.2154    3.0450   -1.5091 C   0  0  0  0  0  0  0  0  0  0  0  0
    2.1650    2.3436   -0.8850 N   0  0  0  0  0  0  0  0  0  0  0  0
    1.7559    1.3460   -0.0804 C   0  0  0  0  0  0  0  0  0  0  0  0
    2.7187    0.5908    0.6395 N   0  0  0  0  0  0  0  0  0  0  0  0
    4.1070    0.4788    0.3982 C   0  0  0  0  0  0  0  0  0  0  0  0
    4.9545    0.0933    1.4522 C   0  0  0  0  0  0  0  0  0  0  0  0
    6.3216   -0.1120    1.2436 C   0  0  0  0  0  0  0  0  0  0  0  0
    6.8596    0.0412   -0.0326 C   0  0  0  0  0  0  0  0  0  0  0  0
    6.0281    0.3868   -1.0977 C   0  0  0  0  0  0  0  0  0  0  0  0
    4.6600    0.5930   -0.8824 C   0  0  0  0  0  0  0  0  0  0  0  0
    6.5672    0.5020   -2.4174 C   0  0  0  0  0  0  0  0  0  0  0  0
    7.0098    0.5834   -3.5287 C   0  0  0  0  0  0  0  0  0  0  0  0
   -0.3427   -6.2104    0.2577 H   0  0  0  0  0  0  0  0  0  0  0  0
    0.6238   -5.0106    1.1696 H   0  0  0  0  0  0  0  0  0  0  0  0
   -0.3230   -4.5244   -0.2828 H   0  0  0  0  0  0  0  0  0  0  0  0
   -2.1773   -3.6506    2.8540 H   0  0  0  0  0  0  0  0  0  0  0  0
   -0.4953   -3.3718    2.4450 H   0  0  0  0  0  0  0  0  0  0  0  0
   -2.9365   -2.7449    0.6801 H   0  0  0  0  0  0  0  0  0  0  0  0
   -1.2654   -2.5224    0.1543 H   0  0  0  0  0  0  0  0  0  0  0  0
    0.5642   -0.6737    1.4282 H   0  0  0  0  0  0  0  0  0  0  0  0
   -2.5313    2.2628   -1.0852 H   0  0  0  0  0  0  0  0  0  0  0  0
   -4.4653    1.4005   -1.1765 H   0  0  0  0  0  0  0  0  0  0  0  0
   -5.6165    0.5035   -0.2451 H   0  0  0  0  0  0  0  0  0  0  0  0
   -4.0963    2.8713    0.9932 H   0  0  0  0  0  0  0  0  0  0  0  0
   -5.3352    1.8885    1.7446 H   0  0  0  0  0  0  0  0  0  0  0  0
   -5.1180    3.5929   -1.5404 H   0  0  0  0  0  0  0  0  0  0  0  0
   -6.4280    4.6679   -1.0133 H   0  0  0  0  0  0  0  0  0  0  0  0
   -4.8511    4.7549   -0.1958 H   0  0  0  0  0  0  0  0  0  0  0  0
    1.5468    3.8476   -2.1591 H   0  0  0  0  0  0  0  0  0  0  0  0
    2.5143    0.6656    1.6292 H   0  0  0  0  0  0  0  0  0  0  0  0
    4.5573   -0.0501    2.4525 H   0  0  0  0  0  0  0  0  0  0  0  0
    6.9637   -0.4021    2.0738 H   0  0  0  0  0  0  0  0  0  0  0  0
    7.9227   -0.1256   -0.1919 H   0  0  0  0  0  0  0  0  0  0  0  0
    4.0238    0.8352   -1.7294 H   0  0  0  0  0  0  0  0  0  0  0  0
    7.3952    0.6485   -4.5160 H   0  0  0  0  0  0  0  0  0  0  0  0
  1  2  1  0
  2  3  1  0
  3  4  1  0
  4  5  1  0
  5  6  1  0
  6  7  2  0
  7  8  1  0
  8  9  2  0
  9 10  1  0
 10 11  2  0
 11 12  1  0
 12 13  1  0
 13 14  1  0
 14 15  1  0
 15 16  1  0
  9 17  1  0
 17 18  2  0
 18 19  1  0
 19 20  2  0
 20 21  1  0
 21 22  1  0
 22 23  2  0
 23 24  1  0
 24 25  2  0
 25 26  1  0
 26 27  2  0
 26 28  1  0
 28 29  3  0
 11  6  1  0
 20  8  1  0
 27 22  1  0
  1 30  1  0
  1 31  1  0
  1 32  1  0
  3 33  1  0
  3 34  1  0
  4 35  1  0
  4 36  1  0
  7 37  1  0
 10 38  1  0
 13 39  1  0
 13 40  1  0
 14 41  1  0
 14 42  1  0
 16 43  1  0
 16 44  1  0
 16 45  1  0
 18 46  1  0
 21 47  1  0
 23 48  1  0
 24 49  1  0
 25 50  1  0
 27 51  1  0
 29 52  1  0
M  END
>  <energy_abs>  (247) 
61.726333587667014

>  <SMILES>  (247) 
COCCOc1cc2c(cc1OCCOC)ncnc2Nc3cccc(c3)C#C

>  <cluster_no>  (247) 
247

>  <fda_drugs_id>  (247) 
AAKJLRGGTJKAMG-UHFFFAOYSA-N

>  <initial_conformation_id>  (247) 
49

>  <minimize_method>  (247) 
MMFF

$$$$

     RDKit          3D

 52 54  0  0  0  0  0  0  0  0999 V2000
   -3.3834   -3.1086    3.0141 C   0  0  0  0  0  0  0  0  0  0  0  0
   -2.4456   -4.0866    2.5867 O   0  0  0  0  0  0  0  0  0  0  0  0
   -2.1164   -3.9945    1.1951 C   0  0  0  0  0  0  0  0  0  0  0  0
   -1.2217   -2.7947    0.8715 C   0  0  0  0  0  0  0  0  0  0  0  0
   -2.0428   -1.6310    0.7139 O   0  0  0  0  0  0  0  0  0  0  0  0
   -1.4453   -0.5188    0.1887 C   0  0  0  0  0  0  0  0  0  0  0  0
   -0.0748   -0.2634    0.2200 C   0  0  0  0  0  0  0  0  0  0  0  0
    0.4656    0.9225   -0.3518 C   0  0  0  0  0  0  0  0  0  0  0  0
   -0.3890    1.8406   -0.9787 C   0  0  0  0  0  0  0  0  0  0  0  0
   -1.7496    1.5791   -0.9942 C   0  0  0  0  0  0  0  0  0  0  0  0
   -2.2806    0.4343   -0.3974 C   0  0  0  0  0  0  0  0  0  0  0  0
   -3.6383    0.2726   -0.4927 O   0  0  0  0  0  0  0  0  0  0  0  0
   -4.2786    0.3141    0.7916 C   0  0  0  0  0  0  0  0  0  0  0  0
   -5.5117    1.2166    0.7019 C   0  0  0  0  0  0  0  0  0  0  0  0
   -5.1886    2.5843    0.4296 O   0  0  0  0  0  0  0  0  0  0  0  0
   -4.6685    3.2828    1.5511 C   0  0  0  0  0  0  0  0  0  0  0  0
    0.0516    2.9606   -1.5571 N   0  0  0  0  0  0  0  0  0  0  0  0
    1.3690    3.1782   -1.5225 C   0  0  0  0  0  0  0  0  0  0  0  0
    2.2809    2.3909   -0.9486 N   0  0  0  0  0  0  0  0  0  0  0  0
    1.8328    1.2692   -0.3569 C   0  0  0  0  0  0  0  0  0  0  0  0
    2.7578    0.4159    0.3090 N   0  0  0  0  0  0  0  0  0  0  0  0
    4.1698    0.4146    0.2144 C   0  0  0  0  0  0  0  0  0  0  0  0
    4.9201   -0.1211    1.2734 C   0  0  0  0  0  0  0  0  0  0  0  0
    6.3134   -0.2026    1.2024 C   0  0  0  0  0  0  0  0  0  0  0  0
    6.9782    0.2268    0.0563 C   0  0  0  0  0  0  0  0  0  0  0  0
    6.2477    0.7240   -1.0226 C   0  0  0  0  0  0  0  0  0  0  0  0
    4.8523    0.8026   -0.9460 C   0  0  0  0  0  0  0  0  0  0  0  0
    6.9244    1.1454   -2.2117 C   0  0  0  0  0  0  0  0  0  0  0  0
    7.4898    1.5008   -3.2102 C   0  0  0  0  0  0  0  0  0  0  0  0
   -4.2578   -3.0857    2.3555 H   0  0  0  0  0  0  0  0  0  0  0  0
   -3.7178   -3.3756    4.0206 H   0  0  0  0  0  0  0  0  0  0  0  0
   -2.9155   -2.1230    3.0670 H   0  0  0  0  0  0  0  0  0  0  0  0
   -1.5653   -4.9113    0.9614 H   0  0  0  0  0  0  0  0  0  0  0  0
   -3.0348   -3.9906    0.5979 H   0  0  0  0  0  0  0  0  0  0  0  0
   -0.6958   -2.9955   -0.0694 H   0  0  0  0  0  0  0  0  0  0  0  0
   -0.5090   -2.6377    1.6882 H   0  0  0  0  0  0  0  0  0  0  0  0
    0.6033   -0.9751    0.6783 H   0  0  0  0  0  0  0  0  0  0  0  0
   -2.4221    2.2856   -1.4758 H   0  0  0  0  0  0  0  0  0  0  0  0
   -4.5984   -0.7043    1.0387 H   0  0  0  0  0  0  0  0  0  0  0  0
   -3.6063    0.6664    1.5828 H   0  0  0  0  0  0  0  0  0  0  0  0
   -6.1409    0.8809   -0.1298 H   0  0  0  0  0  0  0  0  0  0  0  0
   -6.1083    1.1528    1.6185 H   0  0  0  0  0  0  0  0  0  0  0  0
   -3.7025    2.8727    1.8570 H   0  0  0  0  0  0  0  0  0  0  0  0
   -4.5185    4.3268    1.2601 H   0  0  0  0  0  0  0  0  0  0  0  0
   -5.3761    3.2535    2.3860 H   0  0  0  0  0  0  0  0  0  0  0  0
    1.7313    4.0811   -2.0027 H   0  0  0  0  0  0  0  0  0  0  0  0
    2.4562    0.3059    1.2715 H   0  0  0  0  0  0  0  0  0  0  0  0
    4.4254   -0.4770    2.1732 H   0  0  0  0  0  0  0  0  0  0  0  0
    6.8782   -0.6043    2.0396 H   0  0  0  0  0  0  0  0  0  0  0  0
    8.0618    0.1613    0.0041 H   0  0  0  0  0  0  0  0  0  0  0  0
    4.2983    1.1677   -1.8075 H   0  0  0  0  0  0  0  0  0  0  0  0
    7.9863    1.8177   -4.0980 H   0  0  0  0  0  0  0  0  0  0  0  0
  1  2  1  0
  2  3  1  0
  3  4  1  0
  4  5  1  0
  5  6  1  0
  6  7  2  0
  7  8  1  0
  8  9  2  0
  9 10  1  0
 10 11  2  0
 11 12  1  0
 12 13  1  0
 13 14  1  0
 14 15  1  0
 15 16  1  0
  9 17  1  0
 17 18  2  0
 18 19  1  0
 19 20  2  0
 20 21  1  0
 21 22  1  0
 22 23  2  0
 23 24  1  0
 24 25  2  0
 25 26  1  0
 26 27  2  0
 26 28  1  0
 28 29  3  0
 11  6  1  0
 20  8  1  0
 27 22  1  0
  1 30  1  0
  1 31  1  0
  1 32  1  0
  3 33  1  0
  3 34  1  0
  4 35  1  0
  4 36  1  0
  7 37  1  0
 10 38  1  0
 13 39  1  0
 13 40  1  0
 14 41  1  0
 14 42  1  0
 16 43  1  0
 16 44  1  0
 16 45  1  0
 18 46  1  0
 21 47  1  0
 23 48  1  0
 24 49  1  0
 25 50  1  0
 27 51  1  0
 29 52  1  0
M  END
>  <energy_abs>  (248) 
60.49991048231052

>  <SMILES>  (248) 
COCCOc1cc2c(cc1OCCOC)ncnc2Nc3cccc(c3)C#C

>  <cluster_no>  (248) 
248

>  <fda_drugs_id>  (248) 
AAKJLRGGTJKAMG-UHFFFAOYSA-N

>  <initial_conformation_id>  (248) 
48

>  <minimize_method>  (248) 
MMFF

$$$$

     RDKit          3D

 52 54  0  0  0  0  0  0  0  0999 V2000
   -3.2142   -4.8183    0.5390 C   0  0  0  0  0  0  0  0  0  0  0  0
   -3.3283   -4.2153    1.8210 O   0  0  0  0  0  0  0  0  0  0  0  0
   -2.2482   -3.3303    2.1185 C   0  0  0  0  0  0  0  0  0  0  0  0
   -2.4558   -1.9400    1.5168 C   0  0  0  0  0  0  0  0  0  0  0  0
   -1.3591   -1.1108    1.9139 O   0  0  0  0  0  0  0  0  0  0  0  0
   -1.0467   -0.0971    1.0460 C   0  0  0  0  0  0  0  0  0  0  0  0
    0.3241    0.0912    0.8587 C   0  0  0  0  0  0  0  0  0  0  0  0
    0.8152    1.1068    0.0051 C   0  0  0  0  0  0  0  0  0  0  0  0
   -0.0969    1.9310   -0.6628 C   0  0  0  0  0  0  0  0  0  0  0  0
   -1.4589    1.7483   -0.4431 C   0  0  0  0  0  0  0  0  0  0  0  0
   -1.9561    0.7587    0.4151 C   0  0  0  0  0  0  0  0  0  0  0  0
   -3.2835    0.5826    0.6947 O   0  0  0  0  0  0  0  0  0  0  0  0
   -4.2175    1.5146    0.1510 C   0  0  0  0  0  0  0  0  0  0  0  0
   -5.6090    1.1585    0.6653 C   0  0  0  0  0  0  0  0  0  0  0  0
   -6.5622    2.0692    0.1199 O   0  0  0  0  0  0  0  0  0  0  0  0
   -7.8783    1.7806    0.5741 C   0  0  0  0  0  0  0  0  0  0  0  0
    0.2864    2.8961   -1.5022 N   0  0  0  0  0  0  0  0  0  0  0  0
    1.6022    3.0444   -1.6883 C   0  0  0  0  0  0  0  0  0  0  0  0
    2.5662    2.3284   -1.1056 N   0  0  0  0  0  0  0  0  0  0  0  0
    2.1777    1.3662   -0.2508 C   0  0  0  0  0  0  0  0  0  0  0  0
    3.1598    0.5928    0.4266 N   0  0  0  0  0  0  0  0  0  0  0  0
    4.5451    0.4955    0.1609 C   0  0  0  0  0  0  0  0  0  0  0  0
    5.4057    0.0873    1.1932 C   0  0  0  0  0  0  0  0  0  0  0  0
    6.7739   -0.0873    0.9683 C   0  0  0  0  0  0  0  0  0  0  0  0
    7.3011    0.1204   -0.3040 C   0  0  0  0  0  0  0  0  0  0  0  0
    6.4573    0.4896   -1.3510 C   0  0  0  0  0  0  0  0  0  0  0  0
    5.0877    0.6621   -1.1198 C   0  0  0  0  0  0  0  0  0  0  0  0
    6.9919    0.6831   -2.6645 C   0  0  0  0  0  0  0  0  0  0  0  0
    7.4395    0.8463   -3.7668 C   0  0  0  0  0  0  0  0  0  0  0  0
   -3.2458   -4.0660   -0.2534 H   0  0  0  0  0  0  0  0  0  0  0  0
   -2.2908   -5.4008    0.4706 H   0  0  0  0  0  0  0  0  0  0  0  0
   -4.0616   -5.4958    0.4037 H   0  0  0  0  0  0  0  0  0  0  0  0
   -1.2895   -3.7605    1.8038 H   0  0  0  0  0  0  0  0  0  0  0  0
   -2.1939   -3.2387    3.2093 H   0  0  0  0  0  0  0  0  0  0  0  0
   -2.5301   -2.0167    0.4256 H   0  0  0  0  0  0  0  0  0  0  0  0
   -3.3943   -1.5283    1.9047 H   0  0  0  0  0  0  0  0  0  0  0  0
    1.0115   -0.5804    1.3679 H   0  0  0  0  0  0  0  0  0  0  0  0
   -2.1286    2.4219   -0.9703 H   0  0  0  0  0  0  0  0  0  0  0  0
   -3.9732    2.5383    0.4609 H   0  0  0  0  0  0  0  0  0  0  0  0
   -4.2169    1.4653   -0.9448 H   0  0  0  0  0  0  0  0  0  0  0  0
   -5.8613    0.1314    0.3749 H   0  0  0  0  0  0  0  0  0  0  0  0
   -5.6241    1.2086    1.7608 H   0  0  0  0  0  0  0  0  0  0  0  0
   -7.9363    1.8717    1.6627 H   0  0  0  0  0  0  0  0  0  0  0  0
   -8.5639    2.5040    0.1252 H   0  0  0  0  0  0  0  0  0  0  0  0
   -8.1788    0.7754    0.2634 H   0  0  0  0  0  0  0  0  0  0  0  0
    1.9168    3.8222   -2.3756 H   0  0  0  0  0  0  0  0  0  0  0  0
    2.9771    0.6358    1.4239 H   0  0  0  0  0  0  0  0  0  0  0  0
    5.0177   -0.0959    2.1921 H   0  0  0  0  0  0  0  0  0  0  0  0
    7.4252   -0.3904    1.7837 H   0  0  0  0  0  0  0  0  0  0  0  0
    8.3656   -0.0169   -0.4761 H   0  0  0  0  0  0  0  0  0  0  0  0
    4.4430    0.9232   -1.9548 H   0  0  0  0  0  0  0  0  0  0  0  0
    7.8342    0.9938   -4.7447 H   0  0  0  0  0  0  0  0  0  0  0  0
  1  2  1  0
  2  3  1  0
  3  4  1  0
  4  5  1  0
  5  6  1  0
  6  7  2  0
  7  8  1  0
  8  9  2  0
  9 10  1  0
 10 11  2  0
 11 12  1  0
 12 13  1  0
 13 14  1  0
 14 15  1  0
 15 16  1  0
  9 17  1  0
 17 18  2  0
 18 19  1  0
 19 20  2  0
 20 21  1  0
 21 22  1  0
 22 23  2  0
 23 24  1  0
 24 25  2  0
 25 26  1  0
 26 27  2  0
 26 28  1  0
 28 29  3  0
 11  6  1  0
 20  8  1  0
 27 22  1  0
  1 30  1  0
  1 31  1  0
  1 32  1  0
  3 33  1  0
  3 34  1  0
  4 35  1  0
  4 36  1  0
  7 37  1  0
 10 38  1  0
 13 39  1  0
 13 40  1  0
 14 41  1  0
 14 42  1  0
 16 43  1  0
 16 44  1  0
 16 45  1  0
 18 46  1  0
 21 47  1  0
 23 48  1  0
 24 49  1  0
 25 50  1  0
 27 51  1  0
 29 52  1  0
M  END
>  <energy_abs>  (249) 
56.09726825352624

>  <SMILES>  (249) 
COCCOc1cc2c(cc1OCCOC)ncnc2Nc3cccc(c3)C#C

>  <cluster_no>  (249) 
249

>  <fda_drugs_id>  (249) 
AAKJLRGGTJKAMG-UHFFFAOYSA-N

>  <initial_conformation_id>  (249) 
47

>  <minimize_method>  (249) 
MMFF

$$$$

     RDKit          3D

 52 54  0  0  0  0  0  0  0  0999 V2000
   -0.7163   -4.8614    2.4480 C   0  0  0  0  0  0  0  0  0  0  0  0
   -1.4430   -4.6029    1.2477 O   0  0  0  0  0  0  0  0  0  0  0  0
   -2.1504   -3.3600    1.2728 C   0  0  0  0  0  0  0  0  0  0  0  0
   -1.2544   -2.2055    0.8307 C   0  0  0  0  0  0  0  0  0  0  0  0
   -2.0329   -1.0086    0.7821 O   0  0  0  0  0  0  0  0  0  0  0  0
   -1.4404    0.0951    0.2320 C   0  0  0  0  0  0  0  0  0  0  0  0
   -0.0764    0.2299   -0.0270 C   0  0  0  0  0  0  0  0  0  0  0  0
    0.4523    1.4174   -0.6075 C   0  0  0  0  0  0  0  0  0  0  0  0
   -0.4094    2.4779   -0.9207 C   0  0  0  0  0  0  0  0  0  0  0  0
   -1.7613    2.3334   -0.6597 C   0  0  0  0  0  0  0  0  0  0  0  0
   -2.2729    1.1720   -0.0746 C   0  0  0  0  0  0  0  0  0  0  0  0
   -3.6321    1.1159    0.1120 O   0  0  0  0  0  0  0  0  0  0  0  0
   -3.9649    1.3642    1.4924 C   0  0  0  0  0  0  0  0  0  0  0  0
   -5.3732    1.9647    1.5485 C   0  0  0  0  0  0  0  0  0  0  0  0
   -6.3463    0.9235    1.3856 O   0  0  0  0  0  0  0  0  0  0  0  0
   -7.6556    1.4633    1.2260 C   0  0  0  0  0  0  0  0  0  0  0  0
    0.0176    3.6251   -1.4538 N   0  0  0  0  0  0  0  0  0  0  0  0
    1.3319    3.7346   -1.6700 C   0  0  0  0  0  0  0  0  0  0  0  0
    2.2531    2.8062   -1.4063 N   0  0  0  0  0  0  0  0  0  0  0  0
    1.8156    1.6432   -0.8909 C   0  0  0  0  0  0  0  0  0  0  0  0
    2.7471    0.5961   -0.6455 N   0  0  0  0  0  0  0  0  0  0  0  0
    4.1522    0.6779   -0.5321 C   0  0  0  0  0  0  0  0  0  0  0  0
    4.8026    1.8193   -0.0520 C   0  0  0  0  0  0  0  0  0  0  0  0
    6.1885    1.8361    0.1311 C   0  0  0  0  0  0  0  0  0  0  0  0
    6.9442    0.6964   -0.1427 C   0  0  0  0  0  0  0  0  0  0  0  0
    6.3121   -0.4602   -0.5925 C   0  0  0  0  0  0  0  0  0  0  0  0
    4.9247   -0.4717   -0.7710 C   0  0  0  0  0  0  0  0  0  0  0  0
    7.0788   -1.6393   -0.8587 C   0  0  0  0  0  0  0  0  0  0  0  0
    7.7276   -2.6280   -1.0744 C   0  0  0  0  0  0  0  0  0  0  0  0
    0.0231   -4.0774    2.6438 H   0  0  0  0  0  0  0  0  0  0  0  0
   -1.4047   -4.9542    3.3038 H   0  0  0  0  0  0  0  0  0  0  0  0
   -0.1830   -5.8102    2.3239 H   0  0  0  0  0  0  0  0  0  0  0  0
   -2.5926   -3.1713    2.2609 H   0  0  0  0  0  0  0  0  0  0  0  0
   -2.9926   -3.4476    0.5713 H   0  0  0  0  0  0  0  0  0  0  0  0
   -0.8380   -2.4403   -0.1567 H   0  0  0  0  0  0  0  0  0  0  0  0
   -0.4264   -2.0861    1.5428 H   0  0  0  0  0  0  0  0  0  0  0  0
    0.6131   -0.5708    0.2293 H   0  0  0  0  0  0  0  0  0  0  0  0
   -2.4401    3.1488   -0.9046 H   0  0  0  0  0  0  0  0  0  0  0  0
   -3.2616    2.0798    1.9392 H   0  0  0  0  0  0  0  0  0  0  0  0
   -3.9323    0.4164    2.0468 H   0  0  0  0  0  0  0  0  0  0  0  0
   -5.5428    2.4355    2.5223 H   0  0  0  0  0  0  0  0  0  0  0  0
   -5.4914    2.7198    0.7534 H   0  0  0  0  0  0  0  0  0  0  0  0
   -7.9086    2.1361    2.0580 H   0  0  0  0  0  0  0  0  0  0  0  0
   -7.7263    1.9998    0.2720 H   0  0  0  0  0  0  0  0  0  0  0  0
   -8.3721    0.6348    1.2139 H   0  0  0  0  0  0  0  0  0  0  0  0
    1.6824    4.6658   -2.1009 H   0  0  0  0  0  0  0  0  0  0  0  0
    2.4651   -0.2211   -1.1707 H   0  0  0  0  0  0  0  0  0  0  0  0
    4.2357    2.7144    0.1966 H   0  0  0  0  0  0  0  0  0  0  0  0
    6.6742    2.7360    0.4999 H   0  0  0  0  0  0  0  0  0  0  0  0
    8.0217    0.7154    0.0067 H   0  0  0  0  0  0  0  0  0  0  0  0
    4.4471   -1.3872   -1.0998 H   0  0  0  0  0  0  0  0  0  0  0  0
    8.3303   -3.4981   -1.2375 H   0  0  0  0  0  0  0  0  0  0  0  0
  1  2  1  0
  2  3  1  0
  3  4  1  0
  4  5  1  0
  5  6  1  0
  6  7  2  0
  7  8  1  0
  8  9  2  0
  9 10  1  0
 10 11  2  0
 11 12  1  0
 12 13  1  0
 13 14  1  0
 14 15  1  0
 15 16  1  0
  9 17  1  0
 17 18  2  0
 18 19  1  0
 19 20  2  0
 20 21  1  0
 21 22  1  0
 22 23  2  0
 23 24  1  0
 24 25  2  0
 25 26  1  0
 26 27  2  0
 26 28  1  0
 28 29  3  0
 11  6  1  0
 20  8  1  0
 27 22  1  0
  1 30  1  0
  1 31  1  0
  1 32  1  0
  3 33  1  0
  3 34  1  0
  4 35  1  0
  4 36  1  0
  7 37  1  0
 10 38  1  0
 13 39  1  0
 13 40  1  0
 14 41  1  0
 14 42  1  0
 16 43  1  0
 16 44  1  0
 16 45  1  0
 18 46  1  0
 21 47  1  0
 23 48  1  0
 24 49  1  0
 25 50  1  0
 27 51  1  0
 29 52  1  0
M  END
>  <energy_abs>  (250) 
60.05648879327328

>  <SMILES>  (250) 
COCCOc1cc2c(cc1OCCOC)ncnc2Nc3cccc(c3)C#C

>  <cluster_no>  (250) 
250

>  <fda_drugs_id>  (250) 
AAKJLRGGTJKAMG-UHFFFAOYSA-N

>  <initial_conformation_id>  (250) 
45

>  <minimize_method>  (250) 
MMFF

$$$$

     RDKit          3D

 52 54  0  0  0  0  0  0  0  0999 V2000
    0.3698   -3.3573    2.1428 C   0  0  0  0  0  0  0  0  0  0  0  0
   -0.3269   -3.6920    0.9506 O   0  0  0  0  0  0  0  0  0  0  0  0
   -1.7478   -3.7552    1.1188 C   0  0  0  0  0  0  0  0  0  0  0  0
   -2.4049   -2.3739    1.1839 C   0  0  0  0  0  0  0  0  0  0  0  0
   -2.2405   -1.7179   -0.0843 O   0  0  0  0  0  0  0  0  0  0  0  0
   -1.6485   -0.4918    0.0657 C   0  0  0  0  0  0  0  0  0  0  0  0
   -0.3146   -0.3841   -0.3170 C   0  0  0  0  0  0  0  0  0  0  0  0
    0.3600    0.8529   -0.2149 C   0  0  0  0  0  0  0  0  0  0  0  0
   -0.3350    1.9699    0.2706 C   0  0  0  0  0  0  0  0  0  0  0  0
   -1.6760    1.8378    0.6268 C   0  0  0  0  0  0  0  0  0  0  0  0
   -2.3549    0.6211    0.5274 C   0  0  0  0  0  0  0  0  0  0  0  0
   -3.6666    0.4078    0.8504 O   0  0  0  0  0  0  0  0  0  0  0  0
   -4.4827    1.5139    1.2326 C   0  0  0  0  0  0  0  0  0  0  0  0
   -5.0271    2.2629    0.0151 C   0  0  0  0  0  0  0  0  0  0  0  0
   -5.8467    3.3685    0.3963 O   0  0  0  0  0  0  0  0  0  0  0  0
   -7.1912    2.9949    0.6667 C   0  0  0  0  0  0  0  0  0  0  0  0
    0.2387    3.1669    0.4085 N   0  0  0  0  0  0  0  0  0  0  0  0
    1.5284    3.2595    0.0671 C   0  0  0  0  0  0  0  0  0  0  0  0
    2.2926    2.2723   -0.4056 N   0  0  0  0  0  0  0  0  0  0  0  0
    1.7103    1.0700   -0.5580 C   0  0  0  0  0  0  0  0  0  0  0  0
    2.4675   -0.0146   -1.0776 N   0  0  0  0  0  0  0  0  0  0  0  0
    3.8648   -0.1126   -1.2645 C   0  0  0  0  0  0  0  0  0  0  0  0
    4.3587   -1.0301   -2.2064 C   0  0  0  0  0  0  0  0  0  0  0  0
    5.7321   -1.2114   -2.3890 C   0  0  0  0  0  0  0  0  0  0  0  0
    6.6372   -0.4925   -1.6116 C   0  0  0  0  0  0  0  0  0  0  0  0
    6.1670    0.3935   -0.6436 C   0  0  0  0  0  0  0  0  0  0  0  0
    4.7900    0.5713   -0.4659 C   0  0  0  0  0  0  0  0  0  0  0  0
    7.0940    1.1118    0.1770 C   0  0  0  0  0  0  0  0  0  0  0  0
    7.8710    1.7128    0.8676 C   0  0  0  0  0  0  0  0  0  0  0  0
    0.1383   -2.3365    2.4599 H   0  0  0  0  0  0  0  0  0  0  0  0
    1.4424   -3.4157    1.9385 H   0  0  0  0  0  0  0  0  0  0  0  0
    0.1307   -4.0653    2.9418 H   0  0  0  0  0  0  0  0  0  0  0  0
   -1.9911   -4.3449    2.0096 H   0  0  0  0  0  0  0  0  0  0  0  0
   -2.1324   -4.2944    0.2466 H   0  0  0  0  0  0  0  0  0  0  0  0
   -1.9960   -1.7918    2.0189 H   0  0  0  0  0  0  0  0  0  0  0  0
   -3.4808   -2.4937    1.3532 H   0  0  0  0  0  0  0  0  0  0  0  0
    0.1958   -1.2782   -0.6688 H   0  0  0  0  0  0  0  0  0  0  0  0
   -2.1717    2.7344    0.9867 H   0  0  0  0  0  0  0  0  0  0  0  0
   -3.9873    2.1794    1.9489 H   0  0  0  0  0  0  0  0  0  0  0  0
   -5.3240    1.0900    1.7922 H   0  0  0  0  0  0  0  0  0  0  0  0
   -4.1964    2.6698   -0.5704 H   0  0  0  0  0  0  0  0  0  0  0  0
   -5.5654    1.5852   -0.6590 H   0  0  0  0  0  0  0  0  0  0  0  0
   -7.2435    2.3007    1.5094 H   0  0  0  0  0  0  0  0  0  0  0  0
   -7.7507    3.8972    0.9283 H   0  0  0  0  0  0  0  0  0  0  0  0
   -7.6505    2.5472   -0.2198 H   0  0  0  0  0  0  0  0  0  0  0  0
    1.9992    4.2294    0.1855 H   0  0  0  0  0  0  0  0  0  0  0  0
    1.9587   -0.4339   -1.8492 H   0  0  0  0  0  0  0  0  0  0  0  0
    3.6733   -1.6163   -2.8141 H   0  0  0  0  0  0  0  0  0  0  0  0
    6.0936   -1.9184   -3.1308 H   0  0  0  0  0  0  0  0  0  0  0  0
    7.7049   -0.6372   -1.7542 H   0  0  0  0  0  0  0  0  0  0  0  0
    4.4441    1.2463    0.3119 H   0  0  0  0  0  0  0  0  0  0  0  0
    8.5575    2.2455    1.4825 H   0  0  0  0  0  0  0  0  0  0  0  0
  1  2  1  0
  2  3  1  0
  3  4  1  0
  4  5  1  0
  5  6  1  0
  6  7  2  0
  7  8  1  0
  8  9  2  0
  9 10  1  0
 10 11  2  0
 11 12  1  0
 12 13  1  0
 13 14  1  0
 14 15  1  0
 15 16  1  0
  9 17  1  0
 17 18  2  0
 18 19  1  0
 19 20  2  0
 20 21  1  0
 21 22  1  0
 22 23  2  0
 23 24  1  0
 24 25  2  0
 25 26  1  0
 26 27  2  0
 26 28  1  0
 28 29  3  0
 11  6  1  0
 20  8  1  0
 27 22  1  0
  1 30  1  0
  1 31  1  0
  1 32  1  0
  3 33  1  0
  3 34  1  0
  4 35  1  0
  4 36  1  0
  7 37  1  0
 10 38  1  0
 13 39  1  0
 13 40  1  0
 14 41  1  0
 14 42  1  0
 16 43  1  0
 16 44  1  0
 16 45  1  0
 18 46  1  0
 21 47  1  0
 23 48  1  0
 24 49  1  0
 25 50  1  0
 27 51  1  0
 29 52  1  0
M  END
>  <energy_abs>  (251) 
60.844740540965816

>  <SMILES>  (251) 
COCCOc1cc2c(cc1OCCOC)ncnc2Nc3cccc(c3)C#C

>  <cluster_no>  (251) 
251

>  <fda_drugs_id>  (251) 
AAKJLRGGTJKAMG-UHFFFAOYSA-N

>  <initial_conformation_id>  (251) 
44

>  <minimize_method>  (251) 
MMFF

$$$$

     RDKit          3D

 52 54  0  0  0  0  0  0  0  0999 V2000
   -4.0868   -4.3368    1.4299 C   0  0  0  0  0  0  0  0  0  0  0  0
   -3.1457   -3.3625    0.9984 O   0  0  0  0  0  0  0  0  0  0  0  0
   -1.9390   -3.4205    1.7720 C   0  0  0  0  0  0  0  0  0  0  0  0
   -1.0060   -2.2858    1.3438 C   0  0  0  0  0  0  0  0  0  0  0  0
   -1.5334   -1.0555    1.8555 O   0  0  0  0  0  0  0  0  0  0  0  0
   -1.1196    0.0777    1.2124 C   0  0  0  0  0  0  0  0  0  0  0  0
    0.1847    0.2544    0.7474 C   0  0  0  0  0  0  0  0  0  0  0  0
    0.5866    1.4763    0.1411 C   0  0  0  0  0  0  0  0  0  0  0  0
   -0.3396    2.5206    0.0095 C   0  0  0  0  0  0  0  0  0  0  0  0
   -1.6240    2.3358    0.4974 C   0  0  0  0  0  0  0  0  0  0  0  0
   -2.0260    1.1318    1.0827 C   0  0  0  0  0  0  0  0  0  0  0  0
   -3.3199    1.1062    1.5336 O   0  0  0  0  0  0  0  0  0  0  0  0
   -4.0711   -0.0285    1.0722 C   0  0  0  0  0  0  0  0  0  0  0  0
   -5.5112    0.4165    0.7980 C   0  0  0  0  0  0  0  0  0  0  0  0
   -5.6120    1.3790   -0.2600 O   0  0  0  0  0  0  0  0  0  0  0  0
   -5.4734    0.8151   -1.5550 C   0  0  0  0  0  0  0  0  0  0  0  0
   -0.0351    3.6874   -0.5650 N   0  0  0  0  0  0  0  0  0  0  0  0
    1.2116    3.8244   -1.0265 C   0  0  0  0  0  0  0  0  0  0  0  0
    2.1822    2.9116   -0.9572 N   0  0  0  0  0  0  0  0  0  0  0  0
    1.8758    1.7432   -0.3637 C   0  0  0  0  0  0  0  0  0  0  0  0
    2.8881    0.7559   -0.2091 N   0  0  0  0  0  0  0  0  0  0  0  0
    4.1328    0.6764   -0.8768 C   0  0  0  0  0  0  0  0  0  0  0  0
    4.3120    1.1288   -2.1893 C   0  0  0  0  0  0  0  0  0  0  0  0
    5.5340    0.9702   -2.8480 C   0  0  0  0  0  0  0  0  0  0  0  0
    6.5940    0.3343   -2.2076 C   0  0  0  0  0  0  0  0  0  0  0  0
    6.4268   -0.1514   -0.9124 C   0  0  0  0  0  0  0  0  0  0  0  0
    5.1996    0.0060   -0.2594 C   0  0  0  0  0  0  0  0  0  0  0  0
    7.5097   -0.8094   -0.2488 C   0  0  0  0  0  0  0  0  0  0  0  0
    8.4237   -1.3466    0.3141 C   0  0  0  0  0  0  0  0  0  0  0  0
   -4.3960   -4.1345    2.4616 H   0  0  0  0  0  0  0  0  0  0  0  0
   -4.9666   -4.2747    0.7839 H   0  0  0  0  0  0  0  0  0  0  0  0
   -3.6625   -5.3434    1.3514 H   0  0  0  0  0  0  0  0  0  0  0  0
   -2.1860   -3.3268    2.8360 H   0  0  0  0  0  0  0  0  0  0  0  0
   -1.4525   -4.3849    1.5906 H   0  0  0  0  0  0  0  0  0  0  0  0
   -0.9446   -2.2572    0.2496 H   0  0  0  0  0  0  0  0  0  0  0  0
   -0.0144   -2.4514    1.7791 H   0  0  0  0  0  0  0  0  0  0  0  0
    0.9093   -0.5466    0.8533 H   0  0  0  0  0  0  0  0  0  0  0  0
   -2.3458    3.1455    0.4105 H   0  0  0  0  0  0  0  0  0  0  0  0
   -4.0825   -0.7786    1.8702 H   0  0  0  0  0  0  0  0  0  0  0  0
   -3.6355   -0.4673    0.1678 H   0  0  0  0  0  0  0  0  0  0  0  0
   -5.9080    0.9067    1.6937 H   0  0  0  0  0  0  0  0  0  0  0  0
   -6.1520   -0.4455    0.5768 H   0  0  0  0  0  0  0  0  0  0  0  0
   -5.6112    1.6152   -2.2864 H   0  0  0  0  0  0  0  0  0  0  0  0
   -4.4749    0.3930   -1.6989 H   0  0  0  0  0  0  0  0  0  0  0  0
   -6.2373    0.0506   -1.7269 H   0  0  0  0  0  0  0  0  0  0  0  0
    1.4597    4.7693   -1.4957 H   0  0  0  0  0  0  0  0  0  0  0  0
    2.9840    0.5546    0.7808 H   0  0  0  0  0  0  0  0  0  0  0  0
    3.4955    1.6097   -2.7209 H   0  0  0  0  0  0  0  0  0  0  0  0
    5.6516    1.3389   -3.8629 H   0  0  0  0  0  0  0  0  0  0  0  0
    7.5421    0.2149   -2.7265 H   0  0  0  0  0  0  0  0  0  0  0  0
    5.0802   -0.3959    0.7441 H   0  0  0  0  0  0  0  0  0  0  0  0
    9.2439   -1.8038    0.8142 H   0  0  0  0  0  0  0  0  0  0  0  0
  1  2  1  0
  2  3  1  0
  3  4  1  0
  4  5  1  0
  5  6  1  0
  6  7  2  0
  7  8  1  0
  8  9  2  0
  9 10  1  0
 10 11  2  0
 11 12  1  0
 12 13  1  0
 13 14  1  0
 14 15  1  0
 15 16  1  0
  9 17  1  0
 17 18  2  0
 18 19  1  0
 19 20  2  0
 20 21  1  0
 21 22  1  0
 22 23  2  0
 23 24  1  0
 24 25  2  0
 25 26  1  0
 26 27  2  0
 26 28  1  0
 28 29  3  0
 11  6  1  0
 20  8  1  0
 27 22  1  0
  1 30  1  0
  1 31  1  0
  1 32  1  0
  3 33  1  0
  3 34  1  0
  4 35  1  0
  4 36  1  0
  7 37  1  0
 10 38  1  0
 13 39  1  0
 13 40  1  0
 14 41  1  0
 14 42  1  0
 16 43  1  0
 16 44  1  0
 16 45  1  0
 18 46  1  0
 21 47  1  0
 23 48  1  0
 24 49  1  0
 25 50  1  0
 27 51  1  0
 29 52  1  0
M  END
>  <energy_abs>  (252) 
58.98568392720642

>  <SMILES>  (252) 
COCCOc1cc2c(cc1OCCOC)ncnc2Nc3cccc(c3)C#C

>  <cluster_no>  (252) 
252

>  <fda_drugs_id>  (252) 
AAKJLRGGTJKAMG-UHFFFAOYSA-N

>  <initial_conformation_id>  (252) 
43

>  <minimize_method>  (252) 
MMFF

$$$$

     RDKit          3D

 52 54  0  0  0  0  0  0  0  0999 V2000
   -3.1456   -5.0576    3.2341 C   0  0  0  0  0  0  0  0  0  0  0  0
   -2.2217   -4.0374    2.8811 O   0  0  0  0  0  0  0  0  0  0  0  0
   -2.0506   -3.9486    1.4622 C   0  0  0  0  0  0  0  0  0  0  0  0
   -1.1380   -2.7668    1.1338 C   0  0  0  0  0  0  0  0  0  0  0  0
   -1.8995   -1.5593    1.2360 O   0  0  0  0  0  0  0  0  0  0  0  0
   -1.3098   -0.4011    0.7997 C   0  0  0  0  0  0  0  0  0  0  0  0
    0.0664   -0.2320    0.6425 C   0  0  0  0  0  0  0  0  0  0  0  0
    0.6050    1.0028    0.1992 C   0  0  0  0  0  0  0  0  0  0  0  0
   -0.2610    2.0604   -0.1011 C   0  0  0  0  0  0  0  0  0  0  0  0
   -1.6280    1.8828    0.0743 C   0  0  0  0  0  0  0  0  0  0  0  0
   -2.1678    0.6761    0.5317 C   0  0  0  0  0  0  0  0  0  0  0  0
   -3.5062    0.4356    0.7092 O   0  0  0  0  0  0  0  0  0  0  0  0
   -4.4175    1.5323    0.6922 C   0  0  0  0  0  0  0  0  0  0  0  0
   -4.9977    1.7391   -0.7040 C   0  0  0  0  0  0  0  0  0  0  0  0
   -5.8903    2.8528   -0.6845 O   0  0  0  0  0  0  0  0  0  0  0  0
   -6.4657    3.0831   -1.9639 C   0  0  0  0  0  0  0  0  0  0  0  0
    0.1714    3.2404   -0.5527 N   0  0  0  0  0  0  0  0  0  0  0  0
    1.4916    3.3773   -0.7124 C   0  0  0  0  0  0  0  0  0  0  0  0
    2.4164    2.4512   -0.4515 N   0  0  0  0  0  0  0  0  0  0  0  0
    1.9778    1.2687    0.0146 C   0  0  0  0  0  0  0  0  0  0  0  0
    2.9215    0.2603    0.3558 N   0  0  0  0  0  0  0  0  0  0  0  0
    4.2922    0.1922    0.0143 C   0  0  0  0  0  0  0  0  0  0  0  0
    5.1572   -0.5618    0.8239 C   0  0  0  0  0  0  0  0  0  0  0  0
    6.5062   -0.7159    0.4930 C   0  0  0  0  0  0  0  0  0  0  0  0
    7.0068   -0.1377   -0.6710 C   0  0  0  0  0  0  0  0  0  0  0  0
    6.1553    0.5828   -1.5080 C   0  0  0  0  0  0  0  0  0  0  0  0
    4.8052    0.7339   -1.1713 C   0  0  0  0  0  0  0  0  0  0  0  0
    6.6609    1.1587   -2.7168 C   0  0  0  0  0  0  0  0  0  0  0  0
    7.0844    1.6422   -3.7311 C   0  0  0  0  0  0  0  0  0  0  0  0
   -2.7966   -6.0313    2.8769 H   0  0  0  0  0  0  0  0  0  0  0  0
   -4.1351   -4.8373    2.8224 H   0  0  0  0  0  0  0  0  0  0  0  0
   -3.2210   -5.0918    4.3242 H   0  0  0  0  0  0  0  0  0  0  0  0
   -1.5866   -4.8776    1.1132 H   0  0  0  0  0  0  0  0  0  0  0  0
   -3.0278   -3.8206    0.9827 H   0  0  0  0  0  0  0  0  0  0  0  0
   -0.3047   -2.7398    1.8448 H   0  0  0  0  0  0  0  0  0  0  0  0
   -0.7690   -2.8793    0.1076 H   0  0  0  0  0  0  0  0  0  0  0  0
    0.7458   -1.0503    0.8551 H   0  0  0  0  0  0  0  0  0  0  0  0
   -2.2643    2.7270   -0.1728 H   0  0  0  0  0  0  0  0  0  0  0  0
   -5.2389    1.2731    1.3717 H   0  0  0  0  0  0  0  0  0  0  0  0
   -3.9927    2.4516    1.1132 H   0  0  0  0  0  0  0  0  0  0  0  0
   -4.1984    1.9183   -1.4316 H   0  0  0  0  0  0  0  0  0  0  0  0
   -5.5327    0.8346   -1.0181 H   0  0  0  0  0  0  0  0  0  0  0  0
   -7.1388    3.9413   -1.8892 H   0  0  0  0  0  0  0  0  0  0  0  0
   -7.0440    2.2119   -2.2865 H   0  0  0  0  0  0  0  0  0  0  0  0
   -5.6873    3.3122   -2.6981 H   0  0  0  0  0  0  0  0  0  0  0  0
    1.8453    4.3321   -1.0860 H   0  0  0  0  0  0  0  0  0  0  0  0
    2.7701   -0.0052    1.3240 H   0  0  0  0  0  0  0  0  0  0  0  0
    4.7888   -1.0358    1.7302 H   0  0  0  0  0  0  0  0  0  0  0  0
    7.1633   -1.2908    1.1402 H   0  0  0  0  0  0  0  0  0  0  0  0
    8.0564   -0.2604   -0.9263 H   0  0  0  0  0  0  0  0  0  0  0  0
    4.1516    1.2767   -1.8492 H   0  0  0  0  0  0  0  0  0  0  0  0
    7.4577    2.0726   -4.6307 H   0  0  0  0  0  0  0  0  0  0  0  0
  1  2  1  0
  2  3  1  0
  3  4  1  0
  4  5  1  0
  5  6  1  0
  6  7  2  0
  7  8  1  0
  8  9  2  0
  9 10  1  0
 10 11  2  0
 11 12  1  0
 12 13  1  0
 13 14  1  0
 14 15  1  0
 15 16  1  0
  9 17  1  0
 17 18  2  0
 18 19  1  0
 19 20  2  0
 20 21  1  0
 21 22  1  0
 22 23  2  0
 23 24  1  0
 24 25  2  0
 25 26  1  0
 26 27  2  0
 26 28  1  0
 28 29  3  0
 11  6  1  0
 20  8  1  0
 27 22  1  0
  1 30  1  0
  1 31  1  0
  1 32  1  0
  3 33  1  0
  3 34  1  0
  4 35  1  0
  4 36  1  0
  7 37  1  0
 10 38  1  0
 13 39  1  0
 13 40  1  0
 14 41  1  0
 14 42  1  0
 16 43  1  0
 16 44  1  0
 16 45  1  0
 18 46  1  0
 21 47  1  0
 23 48  1  0
 24 49  1  0
 25 50  1  0
 27 51  1  0
 29 52  1  0
M  END
>  <energy_abs>  (253) 
59.21758572235139

>  <SMILES>  (253) 
COCCOc1cc2c(cc1OCCOC)ncnc2Nc3cccc(c3)C#C

>  <cluster_no>  (253) 
253

>  <fda_drugs_id>  (253) 
AAKJLRGGTJKAMG-UHFFFAOYSA-N

>  <initial_conformation_id>  (253) 
42

>  <minimize_method>  (253) 
MMFF

$$$$

     RDKit          3D

 52 54  0  0  0  0  0  0  0  0999 V2000
   -2.9816   -5.0360    2.8294 C   0  0  0  0  0  0  0  0  0  0  0  0
   -1.6653   -4.5347    2.6215 O   0  0  0  0  0  0  0  0  0  0  0  0
   -1.5480   -3.1423    2.9257 C   0  0  0  0  0  0  0  0  0  0  0  0
   -2.0692   -2.2419    1.8018 C   0  0  0  0  0  0  0  0  0  0  0  0
   -1.7289   -0.8817    2.1105 O   0  0  0  0  0  0  0  0  0  0  0  0
   -1.3574   -0.2132    0.9746 C   0  0  0  0  0  0  0  0  0  0  0  0
    0.0012   -0.1570    0.6740 C   0  0  0  0  0  0  0  0  0  0  0  0
    0.4448    0.5217   -0.4834 C   0  0  0  0  0  0  0  0  0  0  0  0
   -0.4951    1.1751   -1.2945 C   0  0  0  0  0  0  0  0  0  0  0  0
   -1.8462    1.1218   -0.9517 C   0  0  0  0  0  0  0  0  0  0  0  0
   -2.3000    0.4375    0.1764 C   0  0  0  0  0  0  0  0  0  0  0  0
   -3.6035    0.3299    0.5747 O   0  0  0  0  0  0  0  0  0  0  0  0
   -4.5895    1.1581   -0.0429 C   0  0  0  0  0  0  0  0  0  0  0  0
   -4.5710    2.5788    0.5145 C   0  0  0  0  0  0  0  0  0  0  0  0
   -5.6116    3.3394   -0.1018 O   0  0  0  0  0  0  0  0  0  0  0  0
   -5.6090    4.6879    0.3477 C   0  0  0  0  0  0  0  0  0  0  0  0
   -0.1468    1.8501   -2.3957 N   0  0  0  0  0  0  0  0  0  0  0  0
    1.1568    1.8860   -2.6955 C   0  0  0  0  0  0  0  0  0  0  0  0
    2.1406    1.2981   -2.0067 N   0  0  0  0  0  0  0  0  0  0  0  0
    1.7873    0.6026   -0.9081 C   0  0  0  0  0  0  0  0  0  0  0  0
    2.7789   -0.0979   -0.1649 N   0  0  0  0  0  0  0  0  0  0  0  0
    4.1881   -0.0117   -0.2575 C   0  0  0  0  0  0  0  0  0  0  0  0
    4.9588   -1.0770    0.2371 C   0  0  0  0  0  0  0  0  0  0  0  0
    6.3555   -1.0231    0.2327 C   0  0  0  0  0  0  0  0  0  0  0  0
    7.0068    0.1131   -0.2445 C   0  0  0  0  0  0  0  0  0  0  0  0
    6.2595    1.1978   -0.7018 C   0  0  0  0  0  0  0  0  0  0  0  0
    4.8603    1.1380   -0.6934 C   0  0  0  0  0  0  0  0  0  0  0  0
    6.9251    2.3747   -1.1733 C   0  0  0  0  0  0  0  0  0  0  0  0
    7.4782    3.3601   -1.5756 C   0  0  0  0  0  0  0  0  0  0  0  0
   -3.2755   -4.9139    3.8787 H   0  0  0  0  0  0  0  0  0  0  0  0
   -2.9817   -6.1083    2.5796 H   0  0  0  0  0  0  0  0  0  0  0  0
   -3.7070   -4.5267    2.1794 H   0  0  0  0  0  0  0  0  0  0  0  0
   -2.0382   -2.9111    3.8793 H   0  0  0  0  0  0  0  0  0  0  0  0
   -0.4798   -2.9279    3.0709 H   0  0  0  0  0  0  0  0  0  0  0  0
   -3.1571   -2.3262    1.7288 H   0  0  0  0  0  0  0  0  0  0  0  0
   -1.6529   -2.5747    0.8435 H   0  0  0  0  0  0  0  0  0  0  0  0
    0.7083   -0.6342    1.3499 H   0  0  0  0  0  0  0  0  0  0  0  0
   -2.5348    1.6360   -1.6126 H   0  0  0  0  0  0  0  0  0  0  0  0
   -4.5335    1.1336   -1.1353 H   0  0  0  0  0  0  0  0  0  0  0  0
   -5.5628    0.7116    0.1890 H   0  0  0  0  0  0  0  0  0  0  0  0
   -3.6026    3.0553    0.3258 H   0  0  0  0  0  0  0  0  0  0  0  0
   -4.7204    2.5523    1.6002 H   0  0  0  0  0  0  0  0  0  0  0  0
   -5.7518    4.7362    1.4313 H   0  0  0  0  0  0  0  0  0  0  0  0
   -4.6698    5.1783    0.0695 H   0  0  0  0  0  0  0  0  0  0  0  0
   -6.4360    5.2134   -0.1387 H   0  0  0  0  0  0  0  0  0  0  0  0
    1.4418    2.4423   -3.5891 H   0  0  0  0  0  0  0  0  0  0  0  0
    2.4832   -1.0639   -0.0698 H   0  0  0  0  0  0  0  0  0  0  0  0
    4.4762   -1.9681    0.6335 H   0  0  0  0  0  0  0  0  0  0  0  0
    6.9328   -1.8640    0.6073 H   0  0  0  0  0  0  0  0  0  0  0  0
    8.0931    0.1526   -0.2479 H   0  0  0  0  0  0  0  0  0  0  0  0
    4.2989    2.0047   -1.0288 H   0  0  0  0  0  0  0  0  0  0  0  0
    7.9666    4.2333   -1.9341 H   0  0  0  0  0  0  0  0  0  0  0  0
  1  2  1  0
  2  3  1  0
  3  4  1  0
  4  5  1  0
  5  6  1  0
  6  7  2  0
  7  8  1  0
  8  9  2  0
  9 10  1  0
 10 11  2  0
 11 12  1  0
 12 13  1  0
 13 14  1  0
 14 15  1  0
 15 16  1  0
  9 17  1  0
 17 18  2  0
 18 19  1  0
 19 20  2  0
 20 21  1  0
 21 22  1  0
 22 23  2  0
 23 24  1  0
 24 25  2  0
 25 26  1  0
 26 27  2  0
 26 28  1  0
 28 29  3  0
 11  6  1  0
 20  8  1  0
 27 22  1  0
  1 30  1  0
  1 31  1  0
  1 32  1  0
  3 33  1  0
  3 34  1  0
  4 35  1  0
  4 36  1  0
  7 37  1  0
 10 38  1  0
 13 39  1  0
 13 40  1  0
 14 41  1  0
 14 42  1  0
 16 43  1  0
 16 44  1  0
 16 45  1  0
 18 46  1  0
 21 47  1  0
 23 48  1  0
 24 49  1  0
 25 50  1  0
 27 51  1  0
 29 52  1  0
M  END
>  <energy_abs>  (254) 
59.32534186293387

>  <SMILES>  (254) 
COCCOc1cc2c(cc1OCCOC)ncnc2Nc3cccc(c3)C#C

>  <cluster_no>  (254) 
254

>  <fda_drugs_id>  (254) 
AAKJLRGGTJKAMG-UHFFFAOYSA-N

>  <initial_conformation_id>  (254) 
41

>  <minimize_method>  (254) 
MMFF

$$$$

     RDKit          3D

 52 54  0  0  0  0  0  0  0  0999 V2000
   -1.9920   -5.2468    1.6147 C   0  0  0  0  0  0  0  0  0  0  0  0
   -1.4385   -4.3854    0.6292 O   0  0  0  0  0  0  0  0  0  0  0  0
   -0.4181   -3.5162    1.1293 C   0  0  0  0  0  0  0  0  0  0  0  0
   -0.9460   -2.3736    2.0073 C   0  0  0  0  0  0  0  0  0  0  0  0
   -1.8468   -1.5334    1.2738 O   0  0  0  0  0  0  0  0  0  0  0  0
   -1.3915   -0.3011    0.8842 C   0  0  0  0  0  0  0  0  0  0  0  0
   -0.0747   -0.0524    0.4960 C   0  0  0  0  0  0  0  0  0  0  0  0
    0.3276    1.2359    0.0607 C   0  0  0  0  0  0  0  0  0  0  0  0
   -0.6121    2.2728    0.0295 C   0  0  0  0  0  0  0  0  0  0  0  0
   -1.9244    2.0048    0.3996 C   0  0  0  0  0  0  0  0  0  0  0  0
   -2.3358    0.7330    0.8131 C   0  0  0  0  0  0  0  0  0  0  0  0
   -3.6133    0.4063    1.1898 O   0  0  0  0  0  0  0  0  0  0  0  0
   -4.6721    1.3314    0.9472 C   0  0  0  0  0  0  0  0  0  0  0  0
   -5.1402    1.2881   -0.5086 C   0  0  0  0  0  0  0  0  0  0  0  0
   -6.1664    2.2503   -0.7562 O   0  0  0  0  0  0  0  0  0  0  0  0
   -5.6460    3.5200   -1.1281 C   0  0  0  0  0  0  0  0  0  0  0  0
   -0.3031    3.5164   -0.3471 N   0  0  0  0  0  0  0  0  0  0  0  0
    0.9685    3.7410   -0.6938 C   0  0  0  0  0  0  0  0  0  0  0  0
    1.9513    2.8379   -0.7121 N   0  0  0  0  0  0  0  0  0  0  0  0
    1.6321    1.5833   -0.3473 C   0  0  0  0  0  0  0  0  0  0  0  0
    2.6278    0.5688   -0.3868 N   0  0  0  0  0  0  0  0  0  0  0  0
    4.0318    0.7119   -0.4708 C   0  0  0  0  0  0  0  0  0  0  0  0
    4.7117    1.8301    0.0268 C   0  0  0  0  0  0  0  0  0  0  0  0
    6.1083    1.9015   -0.0015 C   0  0  0  0  0  0  0  0  0  0  0  0
    6.8507    0.8367   -0.5092 C   0  0  0  0  0  0  0  0  0  0  0  0
    6.1950   -0.3027   -0.9755 C   0  0  0  0  0  0  0  0  0  0  0  0
    4.7973   -0.3667   -0.9449 C   0  0  0  0  0  0  0  0  0  0  0  0
    6.9512   -1.4062   -1.4818 C   0  0  0  0  0  0  0  0  0  0  0  0
    7.5865   -2.3314   -1.9083 C   0  0  0  0  0  0  0  0  0  0  0  0
   -1.2064   -5.8211    2.1152 H   0  0  0  0  0  0  0  0  0  0  0  0
   -2.5747   -4.6817    2.3472 H   0  0  0  0  0  0  0  0  0  0  0  0
   -2.6666   -5.9470    1.1143 H   0  0  0  0  0  0  0  0  0  0  0  0
    0.3281   -4.1061    1.6751 H   0  0  0  0  0  0  0  0  0  0  0  0
    0.0743   -3.1002    0.2441 H   0  0  0  0  0  0  0  0  0  0  0  0
   -0.1198   -1.8071    2.4552 H   0  0  0  0  0  0  0  0  0  0  0  0
   -1.5215   -2.7804    2.8457 H   0  0  0  0  0  0  0  0  0  0  0  0
    0.6588   -0.8512    0.5195 H   0  0  0  0  0  0  0  0  0  0  0  0
   -2.6187    2.8374    0.3575 H   0  0  0  0  0  0  0  0  0  0  0  0
   -5.5121    1.0214    1.5815 H   0  0  0  0  0  0  0  0  0  0  0  0
   -4.4298    2.3405    1.2976 H   0  0  0  0  0  0  0  0  0  0  0  0
   -5.5610    0.2962   -0.7139 H   0  0  0  0  0  0  0  0  0  0  0  0
   -4.3114    1.4122   -1.2157 H   0  0  0  0  0  0  0  0  0  0  0  0
   -5.0885    3.4420   -2.0658 H   0  0  0  0  0  0  0  0  0  0  0  0
   -5.0050    3.9265   -0.3417 H   0  0  0  0  0  0  0  0  0  0  0  0
   -6.4859    4.2028   -1.2812 H   0  0  0  0  0  0  0  0  0  0  0  0
    1.2254    4.7521   -0.9914 H   0  0  0  0  0  0  0  0  0  0  0  0
    2.2970   -0.1885   -0.9762 H   0  0  0  0  0  0  0  0  0  0  0  0
    4.1618    2.6644    0.4563 H   0  0  0  0  0  0  0  0  0  0  0  0
    6.6119    2.7819    0.3880 H   0  0  0  0  0  0  0  0  0  0  0  0
    7.9360    0.8969   -0.5256 H   0  0  0  0  0  0  0  0  0  0  0  0
    4.3052   -1.2665   -1.3053 H   0  0  0  0  0  0  0  0  0  0  0  0
    8.1504   -3.1499   -2.2906 H   0  0  0  0  0  0  0  0  0  0  0  0
  1  2  1  0
  2  3  1  0
  3  4  1  0
  4  5  1  0
  5  6  1  0
  6  7  2  0
  7  8  1  0
  8  9  2  0
  9 10  1  0
 10 11  2  0
 11 12  1  0
 12 13  1  0
 13 14  1  0
 14 15  1  0
 15 16  1  0
  9 17  1  0
 17 18  2  0
 18 19  1  0
 19 20  2  0
 20 21  1  0
 21 22  1  0
 22 23  2  0
 23 24  1  0
 24 25  2  0
 25 26  1  0
 26 27  2  0
 26 28  1  0
 28 29  3  0
 11  6  1  0
 20  8  1  0
 27 22  1  0
  1 30  1  0
  1 31  1  0
  1 32  1  0
  3 33  1  0
  3 34  1  0
  4 35  1  0
  4 36  1  0
  7 37  1  0
 10 38  1  0
 13 39  1  0
 13 40  1  0
 14 41  1  0
 14 42  1  0
 16 43  1  0
 16 44  1  0
 16 45  1  0
 18 46  1  0
 21 47  1  0
 23 48  1  0
 24 49  1  0
 25 50  1  0
 27 51  1  0
 29 52  1  0
M  END
>  <energy_abs>  (255) 
65.10819747875775

>  <SMILES>  (255) 
COCCOc1cc2c(cc1OCCOC)ncnc2Nc3cccc(c3)C#C

>  <cluster_no>  (255) 
255

>  <fda_drugs_id>  (255) 
AAKJLRGGTJKAMG-UHFFFAOYSA-N

>  <initial_conformation_id>  (255) 
39

>  <minimize_method>  (255) 
MMFF

$$$$

     RDKit          3D

 52 54  0  0  0  0  0  0  0  0999 V2000
   -3.7664   -4.8627    0.3829 C   0  0  0  0  0  0  0  0  0  0  0  0
   -2.8555   -3.8043    0.1223 O   0  0  0  0  0  0  0  0  0  0  0  0
   -1.7942   -3.7704    1.0819 C   0  0  0  0  0  0  0  0  0  0  0  0
   -0.8939   -2.5664    0.8033 C   0  0  0  0  0  0  0  0  0  0  0  0
   -1.5548   -1.3825    1.2689 O   0  0  0  0  0  0  0  0  0  0  0  0
   -1.1082   -0.2034    0.7298 C   0  0  0  0  0  0  0  0  0  0  0  0
    0.2340    0.0425    0.4387 C   0  0  0  0  0  0  0  0  0  0  0  0
    0.6449    1.2897   -0.0955 C   0  0  0  0  0  0  0  0  0  0  0  0
   -0.3145    2.2807   -0.3389 C   0  0  0  0  0  0  0  0  0  0  0  0
   -1.6438    2.0263   -0.0227 C   0  0  0  0  0  0  0  0  0  0  0  0
   -2.0575    0.8034    0.5149 C   0  0  0  0  0  0  0  0  0  0  0  0
   -3.3492    0.4967    0.8560 O   0  0  0  0  0  0  0  0  0  0  0  0
   -4.3726    1.4190    0.4883 C   0  0  0  0  0  0  0  0  0  0  0  0
   -5.7260    0.7991    0.8342 C   0  0  0  0  0  0  0  0  0  0  0  0
   -6.8142    1.6496    0.4696 O   0  0  0  0  0  0  0  0  0  0  0  0
   -7.0959    2.6401    1.4490 C   0  0  0  0  0  0  0  0  0  0  0  0
   -0.0053    3.4708   -0.8597 N   0  0  0  0  0  0  0  0  0  0  0  0
    1.2810    3.6830   -1.1551 C   0  0  0  0  0  0  0  0  0  0  0  0
    2.2855    2.8257   -0.9626 N   0  0  0  0  0  0  0  0  0  0  0  0
    1.9730    1.6344   -0.4224 C   0  0  0  0  0  0  0  0  0  0  0  0
    3.0094    0.6991   -0.1493 N   0  0  0  0  0  0  0  0  0  0  0  0
    4.3421    0.7036   -0.6216 C   0  0  0  0  0  0  0  0  0  0  0  0
    4.7024    1.2415   -1.8631 C   0  0  0  0  0  0  0  0  0  0  0  0
    6.0188    1.1673   -2.3288 C   0  0  0  0  0  0  0  0  0  0  0  0
    6.9932    0.5251   -1.5686 C   0  0  0  0  0  0  0  0  0  0  0  0
    6.6474   -0.0509   -0.3474 C   0  0  0  0  0  0  0  0  0  0  0  0
    5.3288    0.0284    0.1154 C   0  0  0  0  0  0  0  0  0  0  0  0
    7.6389   -0.7298    0.4301 C   0  0  0  0  0  0  0  0  0  0  0  0
    8.4713   -1.3013    1.0797 C   0  0  0  0  0  0  0  0  0  0  0  0
   -4.5557   -4.8313   -0.3729 H   0  0  0  0  0  0  0  0  0  0  0  0
   -4.2236   -4.7426    1.3698 H   0  0  0  0  0  0  0  0  0  0  0  0
   -3.2575   -5.8295    0.3165 H   0  0  0  0  0  0  0  0  0  0  0  0
   -2.2177   -3.7031    2.0906 H   0  0  0  0  0  0  0  0  0  0  0  0
   -1.2112   -4.6930    0.9873 H   0  0  0  0  0  0  0  0  0  0  0  0
    0.0408   -2.6863    1.3615 H   0  0  0  0  0  0  0  0  0  0  0  0
   -0.6907   -2.5001   -0.2728 H   0  0  0  0  0  0  0  0  0  0  0  0
    0.9761   -0.7277    0.6210 H   0  0  0  0  0  0  0  0  0  0  0  0
   -2.3544    2.8252   -0.2111 H   0  0  0  0  0  0  0  0  0  0  0  0
   -4.2430    2.3589    1.0359 H   0  0  0  0  0  0  0  0  0  0  0  0
   -4.3439    1.6296   -0.5882 H   0  0  0  0  0  0  0  0  0  0  0  0
   -5.8406   -0.1358    0.2731 H   0  0  0  0  0  0  0  0  0  0  0  0
   -5.7800    0.5239    1.8949 H   0  0  0  0  0  0  0  0  0  0  0  0
   -7.9486    3.2304    1.1025 H   0  0  0  0  0  0  0  0  0  0  0  0
   -6.2453    3.3125    1.5846 H   0  0  0  0  0  0  0  0  0  0  0  0
   -7.3627    2.1721    2.4011 H   0  0  0  0  0  0  0  0  0  0  0  0
    1.5333    4.6445   -1.5890 H   0  0  0  0  0  0  0  0  0  0  0  0
    2.9675    0.4499    0.8339 H   0  0  0  0  0  0  0  0  0  0  0  0
    3.9576    1.7244   -2.4907 H   0  0  0  0  0  0  0  0  0  0  0  0
    6.2767    1.6042   -3.2899 H   0  0  0  0  0  0  0  0  0  0  0  0
    8.0139    0.4687   -1.9381 H   0  0  0  0  0  0  0  0  0  0  0  0
    5.0749   -0.4398    1.0629 H   0  0  0  0  0  0  0  0  0  0  0  0
    9.2118   -1.8062    1.6552 H   0  0  0  0  0  0  0  0  0  0  0  0
  1  2  1  0
  2  3  1  0
  3  4  1  0
  4  5  1  0
  5  6  1  0
  6  7  2  0
  7  8  1  0
  8  9  2  0
  9 10  1  0
 10 11  2  0
 11 12  1  0
 12 13  1  0
 13 14  1  0
 14 15  1  0
 15 16  1  0
  9 17  1  0
 17 18  2  0
 18 19  1  0
 19 20  2  0
 20 21  1  0
 21 22  1  0
 22 23  2  0
 23 24  1  0
 24 25  2  0
 25 26  1  0
 26 27  2  0
 26 28  1  0
 28 29  3  0
 11  6  1  0
 20  8  1  0
 27 22  1  0
  1 30  1  0
  1 31  1  0
  1 32  1  0
  3 33  1  0
  3 34  1  0
  4 35  1  0
  4 36  1  0
  7 37  1  0
 10 38  1  0
 13 39  1  0
 13 40  1  0
 14 41  1  0
 14 42  1  0
 16 43  1  0
 16 44  1  0
 16 45  1  0
 18 46  1  0
 21 47  1  0
 23 48  1  0
 24 49  1  0
 25 50  1  0
 27 51  1  0
 29 52  1  0
M  END
>  <energy_abs>  (256) 
59.47541394515741

>  <SMILES>  (256) 
COCCOc1cc2c(cc1OCCOC)ncnc2Nc3cccc(c3)C#C

>  <cluster_no>  (256) 
256

>  <fda_drugs_id>  (256) 
AAKJLRGGTJKAMG-UHFFFAOYSA-N

>  <initial_conformation_id>  (256) 
38

>  <minimize_method>  (256) 
MMFF

$$$$

     RDKit          3D

 52 54  0  0  0  0  0  0  0  0999 V2000
   -3.6177   -4.5284    0.8397 C   0  0  0  0  0  0  0  0  0  0  0  0
   -3.5079   -3.3725    0.0233 O   0  0  0  0  0  0  0  0  0  0  0  0
   -2.1972   -3.1551   -0.5054 C   0  0  0  0  0  0  0  0  0  0  0  0
   -1.1224   -2.8506    0.5471 C   0  0  0  0  0  0  0  0  0  0  0  0
   -1.4172   -1.6778    1.3198 O   0  0  0  0  0  0  0  0  0  0  0  0
   -1.1002   -0.5105    0.6727 C   0  0  0  0  0  0  0  0  0  0  0  0
    0.2307   -0.1854    0.4169 C   0  0  0  0  0  0  0  0  0  0  0  0
    0.5622    1.0295   -0.2282 C   0  0  0  0  0  0  0  0  0  0  0  0
   -0.4653    1.9050   -0.6052 C   0  0  0  0  0  0  0  0  0  0  0  0
   -1.7833    1.5775   -0.3011 C   0  0  0  0  0  0  0  0  0  0  0  0
   -2.1208    0.3873    0.3469 C   0  0  0  0  0  0  0  0  0  0  0  0
   -3.3850   -0.0008    0.6917 O   0  0  0  0  0  0  0  0  0  0  0  0
   -4.4845    0.8743    0.4570 C   0  0  0  0  0  0  0  0  0  0  0  0
   -4.6423    1.8886    1.5911 C   0  0  0  0  0  0  0  0  0  0  0  0
   -5.7304    2.7868    1.3674 O   0  0  0  0  0  0  0  0  0  0  0  0
   -6.9912    2.2310    1.7167 C   0  0  0  0  0  0  0  0  0  0  0  0
   -0.2317    3.0539   -1.2429 N   0  0  0  0  0  0  0  0  0  0  0  0
    1.0447    3.3418   -1.5192 C   0  0  0  0  0  0  0  0  0  0  0  0
    2.1068    2.5985   -1.2016 N   0  0  0  0  0  0  0  0  0  0  0  0
    1.8710    1.4506   -0.5434 C   0  0  0  0  0  0  0  0  0  0  0  0
    2.9667    0.6415   -0.1341 N   0  0  0  0  0  0  0  0  0  0  0  0
    4.3174    0.7224   -0.5466 C   0  0  0  0  0  0  0  0  0  0  0  0
    4.6918    1.1516   -1.8259 C   0  0  0  0  0  0  0  0  0  0  0  0
    6.0316    1.1514   -2.2250 C   0  0  0  0  0  0  0  0  0  0  0  0
    7.0185    0.6954   -1.3542 C   0  0  0  0  0  0  0  0  0  0  0  0
    6.6642    0.2307   -0.0890 C   0  0  0  0  0  0  0  0  0  0  0  0
    5.3213    0.2324    0.3049 C   0  0  0  0  0  0  0  0  0  0  0  0
    7.6709   -0.2545    0.8038 C   0  0  0  0  0  0  0  0  0  0  0  0
    8.5181   -0.6601    1.5517 C   0  0  0  0  0  0  0  0  0  0  0  0
   -3.1832   -5.4033    0.3457 H   0  0  0  0  0  0  0  0  0  0  0  0
   -4.6800   -4.7214    1.0135 H   0  0  0  0  0  0  0  0  0  0  0  0
   -3.1418   -4.3601    1.8094 H   0  0  0  0  0  0  0  0  0  0  0  0
   -1.9046   -4.0301   -1.0968 H   0  0  0  0  0  0  0  0  0  0  0  0
   -2.2834   -2.3131   -1.1992 H   0  0  0  0  0  0  0  0  0  0  0  0
   -0.1345   -2.7870    0.0745 H   0  0  0  0  0  0  0  0  0  0  0  0
   -1.0560   -3.6754    1.2641 H   0  0  0  0  0  0  0  0  0  0  0  0
    1.0118   -0.8790    0.7165 H   0  0  0  0  0  0  0  0  0  0  0  0
   -2.5432    2.2969   -0.5908 H   0  0  0  0  0  0  0  0  0  0  0  0
   -5.3766    0.2392    0.4231 H   0  0  0  0  0  0  0  0  0  0  0  0
   -4.4484    1.3490   -0.5300 H   0  0  0  0  0  0  0  0  0  0  0  0
   -4.7429    1.3848    2.5610 H   0  0  0  0  0  0  0  0  0  0  0  0
   -3.7378    2.5003    1.6671 H   0  0  0  0  0  0  0  0  0  0  0  0
   -6.9941    1.9041    2.7611 H   0  0  0  0  0  0  0  0  0  0  0  0
   -7.7526    3.0075    1.5961 H   0  0  0  0  0  0  0  0  0  0  0  0
   -7.2451    1.3962    1.0580 H   0  0  0  0  0  0  0  0  0  0  0  0
    1.2347    4.2680   -2.0494 H   0  0  0  0  0  0  0  0  0  0  0  0
    2.8964    0.4883    0.8671 H   0  0  0  0  0  0  0  0  0  0  0  0
    3.9408    1.4871   -2.5352 H   0  0  0  0  0  0  0  0  0  0  0  0
    6.2992    1.5017   -3.2184 H   0  0  0  0  0  0  0  0  0  0  0  0
    8.0583    0.6972   -1.6713 H   0  0  0  0  0  0  0  0  0  0  0  0
    5.0610   -0.1511    1.2888 H   0  0  0  0  0  0  0  0  0  0  0  0
    9.2725   -1.0183    2.2135 H   0  0  0  0  0  0  0  0  0  0  0  0
  1  2  1  0
  2  3  1  0
  3  4  1  0
  4  5  1  0
  5  6  1  0
  6  7  2  0
  7  8  1  0
  8  9  2  0
  9 10  1  0
 10 11  2  0
 11 12  1  0
 12 13  1  0
 13 14  1  0
 14 15  1  0
 15 16  1  0
  9 17  1  0
 17 18  2  0
 18 19  1  0
 19 20  2  0
 20 21  1  0
 21 22  1  0
 22 23  2  0
 23 24  1  0
 24 25  2  0
 25 26  1  0
 26 27  2  0
 26 28  1  0
 28 29  3  0
 11  6  1  0
 20  8  1  0
 27 22  1  0
  1 30  1  0
  1 31  1  0
  1 32  1  0
  3 33  1  0
  3 34  1  0
  4 35  1  0
  4 36  1  0
  7 37  1  0
 10 38  1  0
 13 39  1  0
 13 40  1  0
 14 41  1  0
 14 42  1  0
 16 43  1  0
 16 44  1  0
 16 45  1  0
 18 46  1  0
 21 47  1  0
 23 48  1  0
 24 49  1  0
 25 50  1  0
 27 51  1  0
 29 52  1  0
M  END
>  <energy_abs>  (257) 
64.86671975932892

>  <SMILES>  (257) 
COCCOc1cc2c(cc1OCCOC)ncnc2Nc3cccc(c3)C#C

>  <cluster_no>  (257) 
257

>  <fda_drugs_id>  (257) 
AAKJLRGGTJKAMG-UHFFFAOYSA-N

>  <initial_conformation_id>  (257) 
37

>  <minimize_method>  (257) 
MMFF

$$$$

     RDKit          3D

 52 54  0  0  0  0  0  0  0  0999 V2000
   -0.1671   -5.0675    1.8368 C   0  0  0  0  0  0  0  0  0  0  0  0
   -0.6801   -3.7460    1.7277 O   0  0  0  0  0  0  0  0  0  0  0  0
   -1.9994   -3.7384    1.1662 C   0  0  0  0  0  0  0  0  0  0  0  0
   -2.4674   -2.2943    0.9891 C   0  0  0  0  0  0  0  0  0  0  0  0
   -1.7888   -1.7352   -0.1471 O   0  0  0  0  0  0  0  0  0  0  0  0
   -1.4300   -0.4260    0.0373 C   0  0  0  0  0  0  0  0  0  0  0  0
   -0.0706   -0.1530   -0.1035 C   0  0  0  0  0  0  0  0  0  0  0  0
    0.4218    1.1630    0.0462 C   0  0  0  0  0  0  0  0  0  0  0  0
   -0.4827    2.2011    0.3018 C   0  0  0  0  0  0  0  0  0  0  0  0
   -1.8400    1.9086    0.4140 C   0  0  0  0  0  0  0  0  0  0  0  0
   -2.3383    0.6083    0.2829 C   0  0  0  0  0  0  0  0  0  0  0  0
   -3.6603    0.2608    0.3453 O   0  0  0  0  0  0  0  0  0  0  0  0
   -4.6329    1.2583    0.6546 C   0  0  0  0  0  0  0  0  0  0  0  0
   -5.1218    1.9733   -0.6057 C   0  0  0  0  0  0  0  0  0  0  0  0
   -6.0460    3.0178   -0.3013 O   0  0  0  0  0  0  0  0  0  0  0  0
   -7.3717    2.5476   -0.1003 C   0  0  0  0  0  0  0  0  0  0  0  0
   -0.0972    3.4720    0.4376 N   0  0  0  0  0  0  0  0  0  0  0  0
    1.2101    3.7215    0.3099 C   0  0  0  0  0  0  0  0  0  0  0  0
    2.1659    2.8209    0.0718 N   0  0  0  0  0  0  0  0  0  0  0  0
    1.7776    1.5389   -0.0497 C   0  0  0  0  0  0  0  0  0  0  0  0
    2.7535    0.5287   -0.2702 N   0  0  0  0  0  0  0  0  0  0  0  0
    4.1126    0.6767   -0.6289 C   0  0  0  0  0  0  0  0  0  0  0  0
    4.5817    1.7531   -1.3921 C   0  0  0  0  0  0  0  0  0  0  0  0
    5.9217    1.8328   -1.7834 C   0  0  0  0  0  0  0  0  0  0  0  0
    6.8121    0.8195   -1.4355 C   0  0  0  0  0  0  0  0  0  0  0  0
    6.3575   -0.2798   -0.7095 C   0  0  0  0  0  0  0  0  0  0  0  0
    5.0144   -0.3556   -0.3227 C   0  0  0  0  0  0  0  0  0  0  0  0
    7.2623   -1.3340   -0.3648 C   0  0  0  0  0  0  0  0  0  0  0  0
    8.0219   -2.2187   -0.0770 C   0  0  0  0  0  0  0  0  0  0  0  0
    0.8204   -5.0164    2.3057 H   0  0  0  0  0  0  0  0  0  0  0  0
   -0.0591   -5.5167    0.8440 H   0  0  0  0  0  0  0  0  0  0  0  0
   -0.8215   -5.6842    2.4615 H   0  0  0  0  0  0  0  0  0  0  0  0
   -2.6750   -4.2616    1.8523 H   0  0  0  0  0  0  0  0  0  0  0  0
   -1.9834   -4.2539    0.1988 H   0  0  0  0  0  0  0  0  0  0  0  0
   -2.2649   -1.7284    1.9081 H   0  0  0  0  0  0  0  0  0  0  0  0
   -3.5421   -2.2884    0.7783 H   0  0  0  0  0  0  0  0  0  0  0  0
    0.5997   -0.9778   -0.3328 H   0  0  0  0  0  0  0  0  0  0  0  0
   -2.5000    2.7516    0.5947 H   0  0  0  0  0  0  0  0  0  0  0  0
   -5.4772    0.7274    1.1088 H   0  0  0  0  0  0  0  0  0  0  0  0
   -4.2986    1.9552    1.4324 H   0  0  0  0  0  0  0  0  0  0  0  0
   -5.5531    1.2612   -1.3202 H   0  0  0  0  0  0  0  0  0  0  0  0
   -4.2756    2.4374   -1.1214 H   0  0  0  0  0  0  0  0  0  0  0  0
   -8.0159    3.4117    0.0829 H   0  0  0  0  0  0  0  0  0  0  0  0
   -7.7345    2.0271   -0.9924 H   0  0  0  0  0  0  0  0  0  0  0  0
   -7.4250    1.8883    0.7691 H   0  0  0  0  0  0  0  0  0  0  0  0
    1.5249    4.7543    0.4115 H   0  0  0  0  0  0  0  0  0  0  0  0
    2.6292   -0.2026    0.4229 H   0  0  0  0  0  0  0  0  0  0  0  0
    3.9035    2.5436   -1.7037 H   0  0  0  0  0  0  0  0  0  0  0  0
    6.2632    2.6830   -2.3679 H   0  0  0  0  0  0  0  0  0  0  0  0
    7.8523    0.8880   -1.7433 H   0  0  0  0  0  0  0  0  0  0  0  0
    4.6732   -1.2295    0.2253 H   0  0  0  0  0  0  0  0  0  0  0  0
    8.6952   -3.0050    0.1733 H   0  0  0  0  0  0  0  0  0  0  0  0
  1  2  1  0
  2  3  1  0
  3  4  1  0
  4  5  1  0
  5  6  1  0
  6  7  2  0
  7  8  1  0
  8  9  2  0
  9 10  1  0
 10 11  2  0
 11 12  1  0
 12 13  1  0
 13 14  1  0
 14 15  1  0
 15 16  1  0
  9 17  1  0
 17 18  2  0
 18 19  1  0
 19 20  2  0
 20 21  1  0
 21 22  1  0
 22 23  2  0
 23 24  1  0
 24 25  2  0
 25 26  1  0
 26 27  2  0
 26 28  1  0
 28 29  3  0
 11  6  1  0
 20  8  1  0
 27 22  1  0
  1 30  1  0
  1 31  1  0
  1 32  1  0
  3 33  1  0
  3 34  1  0
  4 35  1  0
  4 36  1  0
  7 37  1  0
 10 38  1  0
 13 39  1  0
 13 40  1  0
 14 41  1  0
 14 42  1  0
 16 43  1  0
 16 44  1  0
 16 45  1  0
 18 46  1  0
 21 47  1  0
 23 48  1  0
 24 49  1  0
 25 50  1  0
 27 51  1  0
 29 52  1  0
M  END
>  <energy_abs>  (258) 
59.100368446354786

>  <SMILES>  (258) 
COCCOc1cc2c(cc1OCCOC)ncnc2Nc3cccc(c3)C#C

>  <cluster_no>  (258) 
258

>  <fda_drugs_id>  (258) 
AAKJLRGGTJKAMG-UHFFFAOYSA-N

>  <initial_conformation_id>  (258) 
36

>  <minimize_method>  (258) 
MMFF

$$$$

     RDKit          3D

 52 54  0  0  0  0  0  0  0  0999 V2000
   -3.5017   -5.3416    0.1803 C   0  0  0  0  0  0  0  0  0  0  0  0
   -2.3542   -4.6799    0.6963 O   0  0  0  0  0  0  0  0  0  0  0  0
   -2.6163   -3.2947    0.9324 C   0  0  0  0  0  0  0  0  0  0  0  0
   -1.3511   -2.6298    1.4698 C   0  0  0  0  0  0  0  0  0  0  0  0
   -1.5950   -1.2632    1.8234 O   0  0  0  0  0  0  0  0  0  0  0  0
   -1.3391   -0.4112    0.7808 C   0  0  0  0  0  0  0  0  0  0  0  0
   -0.0209   -0.0796    0.4742 C   0  0  0  0  0  0  0  0  0  0  0  0
    0.2641    0.8309   -0.5711 C   0  0  0  0  0  0  0  0  0  0  0  0
   -0.7973    1.4190   -1.2755 C   0  0  0  0  0  0  0  0  0  0  0  0
   -2.1057    1.0894   -0.9316 C   0  0  0  0  0  0  0  0  0  0  0  0
   -2.3957    0.1977    0.1030 C   0  0  0  0  0  0  0  0  0  0  0  0
   -3.6599   -0.1787    0.4687 O   0  0  0  0  0  0  0  0  0  0  0  0
   -4.6945    0.8145    0.4157 C   0  0  0  0  0  0  0  0  0  0  0  0
   -4.5568    1.8516    1.5340 C   0  0  0  0  0  0  0  0  0  0  0  0
   -3.6862    2.9047    1.1122 O   0  0  0  0  0  0  0  0  0  0  0  0
   -3.4217    3.8207    2.1650 C   0  0  0  0  0  0  0  0  0  0  0  0
   -0.6034    2.2882   -2.2709 N   0  0  0  0  0  0  0  0  0  0  0  0
    0.6638    2.5982   -2.5622 C   0  0  0  0  0  0  0  0  0  0  0  0
    1.7540    2.1104   -1.9647 N   0  0  0  0  0  0  0  0  0  0  0  0
    1.5581    1.2199   -0.9760 C   0  0  0  0  0  0  0  0  0  0  0  0
    2.6819    0.6361   -0.3296 N   0  0  0  0  0  0  0  0  0  0  0  0
    4.0328    1.0497   -0.3626 C   0  0  0  0  0  0  0  0  0  0  0  0
    4.4119    2.3849   -0.5463 C   0  0  0  0  0  0  0  0  0  0  0  0
    5.7552    2.7691   -0.4983 C   0  0  0  0  0  0  0  0  0  0  0  0
    6.7431    1.8218   -0.2389 C   0  0  0  0  0  0  0  0  0  0  0  0
    6.3849    0.4933   -0.0169 C   0  0  0  0  0  0  0  0  0  0  0  0
    5.0386    0.1146   -0.0666 C   0  0  0  0  0  0  0  0  0  0  0  0
    7.3919   -0.4819    0.2710 C   0  0  0  0  0  0  0  0  0  0  0  0
    8.2376   -1.2994    0.5137 C   0  0  0  0  0  0  0  0  0  0  0  0
   -3.2483   -6.3926    0.0139 H   0  0  0  0  0  0  0  0  0  0  0  0
   -4.3274   -5.2884    0.8962 H   0  0  0  0  0  0  0  0  0  0  0  0
   -3.8031   -4.8994   -0.7743 H   0  0  0  0  0  0  0  0  0  0  0  0
   -3.4332   -3.1834    1.6558 H   0  0  0  0  0  0  0  0  0  0  0  0
   -2.9276   -2.8175   -0.0049 H   0  0  0  0  0  0  0  0  0  0  0  0
   -0.5167   -2.7476    0.7638 H   0  0  0  0  0  0  0  0  0  0  0  0
   -1.0353   -3.1478    2.3854 H   0  0  0  0  0  0  0  0  0  0  0  0
    0.7804   -0.5151    1.0649 H   0  0  0  0  0  0  0  0  0  0  0  0
   -2.9018    1.5580   -1.5024 H   0  0  0  0  0  0  0  0  0  0  0  0
   -4.7755    1.2681   -0.5770 H   0  0  0  0  0  0  0  0  0  0  0  0
   -5.6262    0.2612    0.5827 H   0  0  0  0  0  0  0  0  0  0  0  0
   -4.1613    1.3841    2.4425 H   0  0  0  0  0  0  0  0  0  0  0  0
   -5.5390    2.2899    1.7458 H   0  0  0  0  0  0  0  0  0  0  0  0
   -2.7509    4.5954    1.7862 H   0  0  0  0  0  0  0  0  0  0  0  0
   -4.3491    4.2927    2.5031 H   0  0  0  0  0  0  0  0  0  0  0  0
   -2.9308    3.3145    3.0010 H   0  0  0  0  0  0  0  0  0  0  0  0
    0.8219    3.3126   -3.3629 H   0  0  0  0  0  0  0  0  0  0  0  0
    2.6003   -0.3735   -0.3808 H   0  0  0  0  0  0  0  0  0  0  0  0
    3.6611    3.1509   -0.7231 H   0  0  0  0  0  0  0  0  0  0  0  0
    6.0245    3.8100   -0.6555 H   0  0  0  0  0  0  0  0  0  0  0  0
    7.7852    2.1278   -0.1999 H   0  0  0  0  0  0  0  0  0  0  0  0
    4.7769   -0.9228    0.1261 H   0  0  0  0  0  0  0  0  0  0  0  0
    8.9883   -2.0235    0.7287 H   0  0  0  0  0  0  0  0  0  0  0  0
  1  2  1  0
  2  3  1  0
  3  4  1  0
  4  5  1  0
  5  6  1  0
  6  7  2  0
  7  8  1  0
  8  9  2  0
  9 10  1  0
 10 11  2  0
 11 12  1  0
 12 13  1  0
 13 14  1  0
 14 15  1  0
 15 16  1  0
  9 17  1  0
 17 18  2  0
 18 19  1  0
 19 20  2  0
 20 21  1  0
 21 22  1  0
 22 23  2  0
 23 24  1  0
 24 25  2  0
 25 26  1  0
 26 27  2  0
 26 28  1  0
 28 29  3  0
 11  6  1  0
 20  8  1  0
 27 22  1  0
  1 30  1  0
  1 31  1  0
  1 32  1  0
  3 33  1  0
  3 34  1  0
  4 35  1  0
  4 36  1  0
  7 37  1  0
 10 38  1  0
 13 39  1  0
 13 40  1  0
 14 41  1  0
 14 42  1  0
 16 43  1  0
 16 44  1  0
 16 45  1  0
 18 46  1  0
 21 47  1  0
 23 48  1  0
 24 49  1  0
 25 50  1  0
 27 51  1  0
 29 52  1  0
M  END
>  <energy_abs>  (259) 
59.59264555629914

>  <SMILES>  (259) 
COCCOc1cc2c(cc1OCCOC)ncnc2Nc3cccc(c3)C#C

>  <cluster_no>  (259) 
259

>  <fda_drugs_id>  (259) 
AAKJLRGGTJKAMG-UHFFFAOYSA-N

>  <initial_conformation_id>  (259) 
35

>  <minimize_method>  (259) 
MMFF

$$$$

     RDKit          3D

 52 54  0  0  0  0  0  0  0  0999 V2000
   -3.7202   -3.9474    0.0928 C   0  0  0  0  0  0  0  0  0  0  0  0
   -2.6517   -4.6990    0.6555 O   0  0  0  0  0  0  0  0  0  0  0  0
   -1.9454   -3.9983    1.6862 C   0  0  0  0  0  0  0  0  0  0  0  0
   -1.0781   -2.8571    1.1473 C   0  0  0  0  0  0  0  0  0  0  0  0
   -1.8961   -1.6980    0.9701 O   0  0  0  0  0  0  0  0  0  0  0  0
   -1.3173   -0.5664    0.4576 C   0  0  0  0  0  0  0  0  0  0  0  0
    0.0297   -0.4492    0.1129 C   0  0  0  0  0  0  0  0  0  0  0  0
    0.5477    0.7640   -0.4090 C   0  0  0  0  0  0  0  0  0  0  0  0
   -0.3025    1.8657   -0.5565 C   0  0  0  0  0  0  0  0  0  0  0  0
   -1.6425    1.7344   -0.2127 C   0  0  0  0  0  0  0  0  0  0  0  0
   -2.1679    0.5366    0.2825 C   0  0  0  0  0  0  0  0  0  0  0  0
   -3.4774    0.3423    0.6418 O   0  0  0  0  0  0  0  0  0  0  0  0
   -4.4393    1.3569    0.3601 C   0  0  0  0  0  0  0  0  0  0  0  0
   -4.5672    2.3365    1.5271 C   0  0  0  0  0  0  0  0  0  0  0  0
   -5.4768    3.3986    1.2388 O   0  0  0  0  0  0  0  0  0  0  0  0
   -6.8378    3.0324    1.4236 C   0  0  0  0  0  0  0  0  0  0  0  0
    0.1202    3.0465   -1.0144 N   0  0  0  0  0  0  0  0  0  0  0  0
    1.4162    3.1430   -1.3273 C   0  0  0  0  0  0  0  0  0  0  0  0
    2.3214    2.1665   -1.2398 N   0  0  0  0  0  0  0  0  0  0  0  0
    1.8890    0.9750   -0.7914 C   0  0  0  0  0  0  0  0  0  0  0  0
    2.7994   -0.1159   -0.7237 N   0  0  0  0  0  0  0  0  0  0  0  0
    4.2121   -0.0808   -0.7858 C   0  0  0  0  0  0  0  0  0  0  0  0
    4.9026   -1.2290   -1.2063 C   0  0  0  0  0  0  0  0  0  0  0  0
    6.2995   -1.2675   -1.2211 C   0  0  0  0  0  0  0  0  0  0  0  0
    7.0300   -0.1630   -0.7892 C   0  0  0  0  0  0  0  0  0  0  0  0
    6.3626    0.9729   -0.3318 C   0  0  0  0  0  0  0  0  0  0  0  0
    4.9635    1.0057   -0.3194 C   0  0  0  0  0  0  0  0  0  0  0  0
    7.1096    2.1010    0.1348 C   0  0  0  0  0  0  0  0  0  0  0  0
    7.7355    3.0481    0.5264 C   0  0  0  0  0  0  0  0  0  0  0  0
   -3.3351   -3.1557   -0.5547 H   0  0  0  0  0  0  0  0  0  0  0  0
   -4.3628   -3.5285    0.8731 H   0  0  0  0  0  0  0  0  0  0  0  0
   -4.3202   -4.6223   -0.5241 H   0  0  0  0  0  0  0  0  0  0  0  0
   -2.6539   -3.6480    2.4456 H   0  0  0  0  0  0  0  0  0  0  0  0
   -1.2908   -4.7411    2.1539 H   0  0  0  0  0  0  0  0  0  0  0  0
   -0.2999   -2.6308    1.8851 H   0  0  0  0  0  0  0  0  0  0  0  0
   -0.6324   -3.1549    0.1913 H   0  0  0  0  0  0  0  0  0  0  0  0
    0.7095   -1.2820    0.2585 H   0  0  0  0  0  0  0  0  0  0  0  0
   -2.2642    2.6159   -0.3371 H   0  0  0  0  0  0  0  0  0  0  0  0
   -5.3961    0.8400    0.2252 H   0  0  0  0  0  0  0  0  0  0  0  0
   -4.2634    1.8624   -0.5967 H   0  0  0  0  0  0  0  0  0  0  0  0
   -3.5948    2.7961    1.7319 H   0  0  0  0  0  0  0  0  0  0  0  0
   -4.8514    1.8160    2.4500 H   0  0  0  0  0  0  0  0  0  0  0  0
   -7.4572    3.9126    1.2305 H   0  0  0  0  0  0  0  0  0  0  0  0
   -7.0120    2.7055    2.4532 H   0  0  0  0  0  0  0  0  0  0  0  0
   -7.1304    2.2463    0.7226 H   0  0  0  0  0  0  0  0  0  0  0  0
    1.7645    4.1041   -1.6899 H   0  0  0  0  0  0  0  0  0  0  0  0
    2.4265   -0.8799   -1.2782 H   0  0  0  0  0  0  0  0  0  0  0  0
    4.3570   -2.1102   -1.5343 H   0  0  0  0  0  0  0  0  0  0  0  0
    6.8161   -2.1601   -1.5638 H   0  0  0  0  0  0  0  0  0  0  0  0
    8.1165   -0.1964   -0.8006 H   0  0  0  0  0  0  0  0  0  0  0  0
    4.4615    1.8898    0.0651 H   0  0  0  0  0  0  0  0  0  0  0  0
    8.2879    3.8896    0.8738 H   0  0  0  0  0  0  0  0  0  0  0  0
  1  2  1  0
  2  3  1  0
  3  4  1  0
  4  5  1  0
  5  6  1  0
  6  7  2  0
  7  8  1  0
  8  9  2  0
  9 10  1  0
 10 11  2  0
 11 12  1  0
 12 13  1  0
 13 14  1  0
 14 15  1  0
 15 16  1  0
  9 17  1  0
 17 18  2  0
 18 19  1  0
 19 20  2  0
 20 21  1  0
 21 22  1  0
 22 23  2  0
 23 24  1  0
 24 25  2  0
 25 26  1  0
 26 27  2  0
 26 28  1  0
 28 29  3  0
 11  6  1  0
 20  8  1  0
 27 22  1  0
  1 30  1  0
  1 31  1  0
  1 32  1  0
  3 33  1  0
  3 34  1  0
  4 35  1  0
  4 36  1  0
  7 37  1  0
 10 38  1  0
 13 39  1  0
 13 40  1  0
 14 41  1  0
 14 42  1  0
 16 43  1  0
 16 44  1  0
 16 45  1  0
 18 46  1  0
 21 47  1  0
 23 48  1  0
 24 49  1  0
 25 50  1  0
 27 51  1  0
 29 52  1  0
M  END
>  <energy_abs>  (260) 
60.270044777506534

>  <SMILES>  (260) 
COCCOc1cc2c(cc1OCCOC)ncnc2Nc3cccc(c3)C#C

>  <cluster_no>  (260) 
260

>  <fda_drugs_id>  (260) 
AAKJLRGGTJKAMG-UHFFFAOYSA-N

>  <initial_conformation_id>  (260) 
34

>  <minimize_method>  (260) 
MMFF

$$$$

     RDKit          3D

 52 54  0  0  0  0  0  0  0  0999 V2000
   -3.8157   -4.6780    1.8008 C   0  0  0  0  0  0  0  0  0  0  0  0
   -2.6343   -4.4905    1.0300 O   0  0  0  0  0  0  0  0  0  0  0  0
   -1.6524   -3.6754    1.6794 C   0  0  0  0  0  0  0  0  0  0  0  0
   -1.9513   -2.1773    1.5674 C   0  0  0  0  0  0  0  0  0  0  0  0
   -1.7739   -1.7669    0.1996 O   0  0  0  0  0  0  0  0  0  0  0  0
   -1.2753   -0.4940    0.1307 C   0  0  0  0  0  0  0  0  0  0  0  0
    0.0413   -0.3465   -0.2980 C   0  0  0  0  0  0  0  0  0  0  0  0
    0.6329    0.9373   -0.3765 C   0  0  0  0  0  0  0  0  0  0  0  0
   -0.1254    2.0632   -0.0245 C   0  0  0  0  0  0  0  0  0  0  0  0
   -1.4451    1.8908    0.3780 C   0  0  0  0  0  0  0  0  0  0  0  0
   -2.0395    0.6278    0.4338 C   0  0  0  0  0  0  0  0  0  0  0  0
   -3.3270    0.4460    0.8592 O   0  0  0  0  0  0  0  0  0  0  0  0
   -4.2915    1.2557    0.1751 C   0  0  0  0  0  0  0  0  0  0  0  0
   -5.0901    2.0600    1.1981 C   0  0  0  0  0  0  0  0  0  0  0  0
   -5.9828    2.9822    0.5737 O   0  0  0  0  0  0  0  0  0  0  0  0
   -7.2105    2.3855    0.1793 C   0  0  0  0  0  0  0  0  0  0  0  0
    0.3706    3.3010   -0.0486 N   0  0  0  0  0  0  0  0  0  0  0  0
    1.6476    3.4302   -0.4237 C   0  0  0  0  0  0  0  0  0  0  0  0
    2.4698    2.4391   -0.7762 N   0  0  0  0  0  0  0  0  0  0  0  0
    1.9662    1.1938   -0.7556 C   0  0  0  0  0  0  0  0  0  0  0  0
    2.7968    0.1038   -1.1216 N   0  0  0  0  0  0  0  0  0  0  0  0
    4.2068    0.0455   -1.1940 C   0  0  0  0  0  0  0  0  0  0  0  0
    4.8077   -0.9850   -1.9346 C   0  0  0  0  0  0  0  0  0  0  0  0
    6.1979   -1.1347   -1.9734 C   0  0  0  0  0  0  0  0  0  0  0  0
    7.0121   -0.2687   -1.2480 C   0  0  0  0  0  0  0  0  0  0  0  0
    6.4341    0.7400   -0.4780 C   0  0  0  0  0  0  0  0  0  0  0  0
    5.0415    0.8840   -0.4433 C   0  0  0  0  0  0  0  0  0  0  0  0
    7.2617    1.6208    0.2874 C   0  0  0  0  0  0  0  0  0  0  0  0
    7.9464    2.3651    0.9328 C   0  0  0  0  0  0  0  0  0  0  0  0
   -4.4642   -5.3780    1.2686 H   0  0  0  0  0  0  0  0  0  0  0  0
   -4.3595   -3.7378    1.9216 H   0  0  0  0  0  0  0  0  0  0  0  0
   -3.5744   -5.1078    2.7792 H   0  0  0  0  0  0  0  0  0  0  0  0
   -1.5493   -3.9813    2.7290 H   0  0  0  0  0  0  0  0  0  0  0  0
   -0.6968   -3.8805    1.1775 H   0  0  0  0  0  0  0  0  0  0  0  0
   -2.9818   -1.9604    1.8681 H   0  0  0  0  0  0  0  0  0  0  0  0
   -1.2578   -1.6449    2.2349 H   0  0  0  0  0  0  0  0  0  0  0  0
    0.6140   -1.2395   -0.5331 H   0  0  0  0  0  0  0  0  0  0  0  0
   -2.0095    2.7709    0.6727 H   0  0  0  0  0  0  0  0  0  0  0  0
   -4.9576    0.5749   -0.3649 H   0  0  0  0  0  0  0  0  0  0  0  0
   -3.8635    1.9187   -0.5863 H   0  0  0  0  0  0  0  0  0  0  0  0
   -5.6269    1.3968    1.8866 H   0  0  0  0  0  0  0  0  0  0  0  0
   -4.3996    2.6444    1.8164 H   0  0  0  0  0  0  0  0  0  0  0  0
   -7.0445    1.5876   -0.5511 H   0  0  0  0  0  0  0  0  0  0  0  0
   -7.7411    1.9915    1.0534 H   0  0  0  0  0  0  0  0  0  0  0  0
   -7.8310    3.1576   -0.2845 H   0  0  0  0  0  0  0  0  0  0  0  0
    2.0558    4.4357   -0.4438 H   0  0  0  0  0  0  0  0  0  0  0  0
    2.3550   -0.4182   -1.8713 H   0  0  0  0  0  0  0  0  0  0  0  0
    4.1961   -1.6877   -2.4957 H   0  0  0  0  0  0  0  0  0  0  0  0
    6.6428   -1.9346   -2.5601 H   0  0  0  0  0  0  0  0  0  0  0  0
    8.0925   -0.3894   -1.2781 H   0  0  0  0  0  0  0  0  0  0  0  0
    4.6126    1.6604    0.1839 H   0  0  0  0  0  0  0  0  0  0  0  0
    8.5467    3.0347    1.4996 H   0  0  0  0  0  0  0  0  0  0  0  0
  1  2  1  0
  2  3  1  0
  3  4  1  0
  4  5  1  0
  5  6  1  0
  6  7  2  0
  7  8  1  0
  8  9  2  0
  9 10  1  0
 10 11  2  0
 11 12  1  0
 12 13  1  0
 13 14  1  0
 14 15  1  0
 15 16  1  0
  9 17  1  0
 17 18  2  0
 18 19  1  0
 19 20  2  0
 20 21  1  0
 21 22  1  0
 22 23  2  0
 23 24  1  0
 24 25  2  0
 25 26  1  0
 26 27  2  0
 26 28  1  0
 28 29  3  0
 11  6  1  0
 20  8  1  0
 27 22  1  0
  1 30  1  0
  1 31  1  0
  1 32  1  0
  3 33  1  0
  3 34  1  0
  4 35  1  0
  4 36  1  0
  7 37  1  0
 10 38  1  0
 13 39  1  0
 13 40  1  0
 14 41  1  0
 14 42  1  0
 16 43  1  0
 16 44  1  0
 16 45  1  0
 18 46  1  0
 21 47  1  0
 23 48  1  0
 24 49  1  0
 25 50  1  0
 27 51  1  0
 29 52  1  0
M  END
>  <energy_abs>  (261) 
62.53374468704159

>  <SMILES>  (261) 
COCCOc1cc2c(cc1OCCOC)ncnc2Nc3cccc(c3)C#C

>  <cluster_no>  (261) 
261

>  <fda_drugs_id>  (261) 
AAKJLRGGTJKAMG-UHFFFAOYSA-N

>  <initial_conformation_id>  (261) 
33

>  <minimize_method>  (261) 
MMFF

$$$$

     RDKit          3D

 52 54  0  0  0  0  0  0  0  0999 V2000
   -3.7608   -4.0787    2.6710 C   0  0  0  0  0  0  0  0  0  0  0  0
   -2.8364   -4.0114    1.5901 O   0  0  0  0  0  0  0  0  0  0  0  0
   -2.9001   -2.7484    0.9270 C   0  0  0  0  0  0  0  0  0  0  0  0
   -1.8463   -2.7097   -0.1776 C   0  0  0  0  0  0  0  0  0  0  0  0
   -1.9307   -1.5109   -0.9596 O   0  0  0  0  0  0  0  0  0  0  0  0
   -1.2891   -0.4552   -0.3648 C   0  0  0  0  0  0  0  0  0  0  0  0
    0.1019   -0.3841   -0.3969 C   0  0  0  0  0  0  0  0  0  0  0  0
    0.7764    0.7222    0.1748 C   0  0  0  0  0  0  0  0  0  0  0  0
    0.0247    1.7625    0.7406 C   0  0  0  0  0  0  0  0  0  0  0  0
   -1.3646    1.6796    0.7353 C   0  0  0  0  0  0  0  0  0  0  0  0
   -2.0390    0.5885    0.1817 C   0  0  0  0  0  0  0  0  0  0  0  0
   -3.3990    0.4346    0.1498 O   0  0  0  0  0  0  0  0  0  0  0  0
   -4.1999    1.5637    0.4953 C   0  0  0  0  0  0  0  0  0  0  0  0
   -5.6653    1.2007    0.2579 C   0  0  0  0  0  0  0  0  0  0  0  0
   -6.5517    2.2539    0.6340 O   0  0  0  0  0  0  0  0  0  0  0  0
   -6.6776    3.2552   -0.3688 C   0  0  0  0  0  0  0  0  0  0  0  0
    0.5870    2.8431    1.2868 N   0  0  0  0  0  0  0  0  0  0  0  0
    1.9225    2.9023    1.2657 C   0  0  0  0  0  0  0  0  0  0  0  0
    2.7438    1.9799    0.7604 N   0  0  0  0  0  0  0  0  0  0  0  0
    2.1768    0.8864    0.2206 C   0  0  0  0  0  0  0  0  0  0  0  0
    3.0045   -0.1422   -0.3071 N   0  0  0  0  0  0  0  0  0  0  0  0
    4.3904   -0.1068   -0.5880 C   0  0  0  0  0  0  0  0  0  0  0  0
    5.0944   -1.3205   -0.6657 C   0  0  0  0  0  0  0  0  0  0  0  0
    6.4509   -1.3508   -1.0007 C   0  0  0  0  0  0  0  0  0  0  0  0
    7.1212   -0.1652   -1.2926 C   0  0  0  0  0  0  0  0  0  0  0  0
    6.4307    1.0461   -1.2613 C   0  0  0  0  0  0  0  0  0  0  0  0
    5.0725    1.0697   -0.9239 C   0  0  0  0  0  0  0  0  0  0  0  0
    7.1092    2.2638   -1.5859 C   0  0  0  0  0  0  0  0  0  0  0  0
    7.6723    3.2863   -1.8684 C   0  0  0  0  0  0  0  0  0  0  0  0
   -3.5261   -3.3174    3.4229 H   0  0  0  0  0  0  0  0  0  0  0  0
   -4.7885   -3.9504    2.3094 H   0  0  0  0  0  0  0  0  0  0  0  0
   -3.6760   -5.0631    3.1362 H   0  0  0  0  0  0  0  0  0  0  0  0
   -2.7187   -1.9458    1.6524 H   0  0  0  0  0  0  0  0  0  0  0  0
   -3.8987   -2.6000    0.4988 H   0  0  0  0  0  0  0  0  0  0  0  0
   -2.0192   -3.5487   -0.8627 H   0  0  0  0  0  0  0  0  0  0  0  0
   -0.8406   -2.8725    0.2306 H   0  0  0  0  0  0  0  0  0  0  0  0
    0.6573   -1.1783   -0.8885 H   0  0  0  0  0  0  0  0  0  0  0  0
   -1.9077    2.5047    1.1871 H   0  0  0  0  0  0  0  0  0  0  0  0
   -3.9266    2.4272   -0.1208 H   0  0  0  0  0  0  0  0  0  0  0  0
   -4.0635    1.8240    1.5523 H   0  0  0  0  0  0  0  0  0  0  0  0
   -5.8377    0.8934   -0.7810 H   0  0  0  0  0  0  0  0  0  0  0  0
   -5.9168    0.3306    0.8735 H   0  0  0  0  0  0  0  0  0  0  0  0
   -7.0234    2.8180   -1.3105 H   0  0  0  0  0  0  0  0  0  0  0  0
   -7.4182    3.9860   -0.0311 H   0  0  0  0  0  0  0  0  0  0  0  0
   -5.7293    3.7749   -0.5209 H   0  0  0  0  0  0  0  0  0  0  0  0
    2.3829    3.7820    1.7032 H   0  0  0  0  0  0  0  0  0  0  0  0
    2.7407   -1.0239    0.1185 H   0  0  0  0  0  0  0  0  0  0  0  0
    4.5894   -2.2621   -0.4625 H   0  0  0  0  0  0  0  0  0  0  0  0
    6.9813   -2.2983   -1.0377 H   0  0  0  0  0  0  0  0  0  0  0  0
    8.1758   -0.1912   -1.5541 H   0  0  0  0  0  0  0  0  0  0  0  0
    4.5484    2.0222   -0.9304 H   0  0  0  0  0  0  0  0  0  0  0  0
    8.1640    4.1960   -2.1247 H   0  0  0  0  0  0  0  0  0  0  0  0
  1  2  1  0
  2  3  1  0
  3  4  1  0
  4  5  1  0
  5  6  1  0
  6  7  2  0
  7  8  1  0
  8  9  2  0
  9 10  1  0
 10 11  2  0
 11 12  1  0
 12 13  1  0
 13 14  1  0
 14 15  1  0
 15 16  1  0
  9 17  1  0
 17 18  2  0
 18 19  1  0
 19 20  2  0
 20 21  1  0
 21 22  1  0
 22 23  2  0
 23 24  1  0
 24 25  2  0
 25 26  1  0
 26 27  2  0
 26 28  1  0
 28 29  3  0
 11  6  1  0
 20  8  1  0
 27 22  1  0
  1 30  1  0
  1 31  1  0
  1 32  1  0
  3 33  1  0
  3 34  1  0
  4 35  1  0
  4 36  1  0
  7 37  1  0
 10 38  1  0
 13 39  1  0
 13 40  1  0
 14 41  1  0
 14 42  1  0
 16 43  1  0
 16 44  1  0
 16 45  1  0
 18 46  1  0
 21 47  1  0
 23 48  1  0
 24 49  1  0
 25 50  1  0
 27 51  1  0
 29 52  1  0
M  END
>  <energy_abs>  (262) 
57.88361928136941

>  <SMILES>  (262) 
COCCOc1cc2c(cc1OCCOC)ncnc2Nc3cccc(c3)C#C

>  <cluster_no>  (262) 
262

>  <fda_drugs_id>  (262) 
AAKJLRGGTJKAMG-UHFFFAOYSA-N

>  <initial_conformation_id>  (262) 
32

>  <minimize_method>  (262) 
MMFF

$$$$

     RDKit          3D

 52 54  0  0  0  0  0  0  0  0999 V2000
   -1.6456   -5.6785    0.7652 C   0  0  0  0  0  0  0  0  0  0  0  0
   -2.1166   -4.4249    1.2484 O   0  0  0  0  0  0  0  0  0  0  0  0
   -1.0503   -3.4848    1.4088 C   0  0  0  0  0  0  0  0  0  0  0  0
   -1.6174   -2.1082    1.7724 C   0  0  0  0  0  0  0  0  0  0  0  0
   -2.1923   -1.4897    0.6058 O   0  0  0  0  0  0  0  0  0  0  0  0
   -1.5648   -0.3369    0.2087 C   0  0  0  0  0  0  0  0  0  0  0  0
   -0.1999   -0.3165   -0.0803 C   0  0  0  0  0  0  0  0  0  0  0  0
    0.4231    0.8643   -0.5544 C   0  0  0  0  0  0  0  0  0  0  0  0
   -0.3486    2.0202   -0.7356 C   0  0  0  0  0  0  0  0  0  0  0  0
   -1.7105    1.9733   -0.4594 C   0  0  0  0  0  0  0  0  0  0  0  0
   -2.3377    0.8076   -0.0061 C   0  0  0  0  0  0  0  0  0  0  0  0
   -3.6664    0.7210    0.3125 O   0  0  0  0  0  0  0  0  0  0  0  0
   -4.5784    1.5897   -0.3709 C   0  0  0  0  0  0  0  0  0  0  0  0
   -4.9504    2.7956    0.4954 C   0  0  0  0  0  0  0  0  0  0  0  0
   -5.8643    2.3941    1.5215 O   0  0  0  0  0  0  0  0  0  0  0  0
   -6.2269    3.4858    2.3581 C   0  0  0  0  0  0  0  0  0  0  0  0
    0.1702    3.1742   -1.1652 N   0  0  0  0  0  0  0  0  0  0  0  0
    1.4834    3.1860   -1.4158 C   0  0  0  0  0  0  0  0  0  0  0  0
    2.3212    2.1538   -1.2829 N   0  0  0  0  0  0  0  0  0  0  0  0
    1.7944    0.9910   -0.8593 C   0  0  0  0  0  0  0  0  0  0  0  0
    2.6347   -0.1494   -0.7183 N   0  0  0  0  0  0  0  0  0  0  0  0
    4.0471   -0.2064   -0.6895 C   0  0  0  0  0  0  0  0  0  0  0  0
    4.6813   -1.4248   -0.9901 C   0  0  0  0  0  0  0  0  0  0  0  0
    6.0709   -1.5540   -0.9159 C   0  0  0  0  0  0  0  0  0  0  0  0
    6.8501   -0.4691   -0.5187 C   0  0  0  0  0  0  0  0  0  0  0  0
    6.2368    0.7363   -0.1774 C   0  0  0  0  0  0  0  0  0  0  0  0
    4.8432    0.8565   -0.2446 C   0  0  0  0  0  0  0  0  0  0  0  0
    7.0341    1.8552    0.2341 C   0  0  0  0  0  0  0  0  0  0  0  0
    7.6984    2.7933    0.5828 C   0  0  0  0  0  0  0  0  0  0  0  0
   -1.2300   -5.5679   -0.2419 H   0  0  0  0  0  0  0  0  0  0  0  0
   -0.8900   -6.0921    1.4421 H   0  0  0  0  0  0  0  0  0  0  0  0
   -2.4899   -6.3711    0.7214 H   0  0  0  0  0  0  0  0  0  0  0  0
   -0.4768   -3.4282    0.4754 H   0  0  0  0  0  0  0  0  0  0  0  0
   -0.3984   -3.8377    2.2184 H   0  0  0  0  0  0  0  0  0  0  0  0
   -2.4272   -2.2139    2.5048 H   0  0  0  0  0  0  0  0  0  0  0  0
   -0.8393   -1.4852    2.2303 H   0  0  0  0  0  0  0  0  0  0  0  0
    0.3870   -1.2188    0.0587 H   0  0  0  0  0  0  0  0  0  0  0  0
   -2.2716    2.8928   -0.5965 H   0  0  0  0  0  0  0  0  0  0  0  0
   -5.4778    0.9947   -0.5690 H   0  0  0  0  0  0  0  0  0  0  0  0
   -4.1867    1.9022   -1.3457 H   0  0  0  0  0  0  0  0  0  0  0  0
   -5.4411    3.5493   -0.1300 H   0  0  0  0  0  0  0  0  0  0  0  0
   -4.0613    3.2311    0.9634 H   0  0  0  0  0  0  0  0  0  0  0  0
   -6.9376    3.1242    3.1059 H   0  0  0  0  0  0  0  0  0  0  0  0
   -6.7079    4.2729    1.7718 H   0  0  0  0  0  0  0  0  0  0  0  0
   -5.3468    3.8833    2.8725 H   0  0  0  0  0  0  0  0  0  0  0  0
    1.9094    4.1226   -1.7612 H   0  0  0  0  0  0  0  0  0  0  0  0
    2.2476   -0.9084   -1.2698 H   0  0  0  0  0  0  0  0  0  0  0  0
    4.0976   -2.2886   -1.2973 H   0  0  0  0  0  0  0  0  0  0  0  0
    6.5431   -2.4999   -1.1684 H   0  0  0  0  0  0  0  0  0  0  0  0
    7.9319   -0.5698   -0.4681 H   0  0  0  0  0  0  0  0  0  0  0  0
    4.3842    1.7933    0.0580 H   0  0  0  0  0  0  0  0  0  0  0  0
    8.2845    3.6249    0.8956 H   0  0  0  0  0  0  0  0  0  0  0  0
  1  2  1  0
  2  3  1  0
  3  4  1  0
  4  5  1  0
  5  6  1  0
  6  7  2  0
  7  8  1  0
  8  9  2  0
  9 10  1  0
 10 11  2  0
 11 12  1  0
 12 13  1  0
 13 14  1  0
 14 15  1  0
 15 16  1  0
  9 17  1  0
 17 18  2  0
 18 19  1  0
 19 20  2  0
 20 21  1  0
 21 22  1  0
 22 23  2  0
 23 24  1  0
 24 25  2  0
 25 26  1  0
 26 27  2  0
 26 28  1  0
 28 29  3  0
 11  6  1  0
 20  8  1  0
 27 22  1  0
  1 30  1  0
  1 31  1  0
  1 32  1  0
  3 33  1  0
  3 34  1  0
  4 35  1  0
  4 36  1  0
  7 37  1  0
 10 38  1  0
 13 39  1  0
 13 40  1  0
 14 41  1  0
 14 42  1  0
 16 43  1  0
 16 44  1  0
 16 45  1  0
 18 46  1  0
 21 47  1  0
 23 48  1  0
 24 49  1  0
 25 50  1  0
 27 51  1  0
 29 52  1  0
M  END
>  <energy_abs>  (263) 
64.84888113675613

>  <SMILES>  (263) 
COCCOc1cc2c(cc1OCCOC)ncnc2Nc3cccc(c3)C#C

>  <cluster_no>  (263) 
263

>  <fda_drugs_id>  (263) 
AAKJLRGGTJKAMG-UHFFFAOYSA-N

>  <initial_conformation_id>  (263) 
31

>  <minimize_method>  (263) 
MMFF

$$$$

     RDKit          3D

 52 54  0  0  0  0  0  0  0  0999 V2000
   -2.5014   -4.6257    0.6835 C   0  0  0  0  0  0  0  0  0  0  0  0
   -2.8709   -3.7315    1.7244 O   0  0  0  0  0  0  0  0  0  0  0  0
   -1.7592   -3.2248    2.4689 C   0  0  0  0  0  0  0  0  0  0  0  0
   -0.9477   -2.1663    1.7140 C   0  0  0  0  0  0  0  0  0  0  0  0
   -1.7773   -1.0241    1.4851 O   0  0  0  0  0  0  0  0  0  0  0  0
   -1.2988   -0.0626    0.6395 C   0  0  0  0  0  0  0  0  0  0  0  0
    0.0492    0.1320    0.3413 C   0  0  0  0  0  0  0  0  0  0  0  0
    0.4624    1.1467   -0.5664 C   0  0  0  0  0  0  0  0  0  0  0  0
   -0.5011    1.9541   -1.1867 C   0  0  0  0  0  0  0  0  0  0  0  0
   -1.8360    1.7634   -0.8666 C   0  0  0  0  0  0  0  0  0  0  0  0
   -2.2351    0.7910    0.0525 C   0  0  0  0  0  0  0  0  0  0  0  0
   -3.5843    0.6534    0.2608 O   0  0  0  0  0  0  0  0  0  0  0  0
   -3.9636    1.1490    1.5561 C   0  0  0  0  0  0  0  0  0  0  0  0
   -5.4836    1.0453    1.7049 C   0  0  0  0  0  0  0  0  0  0  0  0
   -6.1822    2.1552    1.1266 O   0  0  0  0  0  0  0  0  0  0  0  0
   -6.1896    2.1370   -0.2951 C   0  0  0  0  0  0  0  0  0  0  0  0
   -0.1879    2.9024   -2.0728 N   0  0  0  0  0  0  0  0  0  0  0  0
    1.1084    3.0529   -2.3598 C   0  0  0  0  0  0  0  0  0  0  0  0
    2.1180    2.3584   -1.8309 N   0  0  0  0  0  0  0  0  0  0  0  0
    1.7996    1.4167   -0.9252 C   0  0  0  0  0  0  0  0  0  0  0  0
    2.8400    0.6855   -0.2858 N   0  0  0  0  0  0  0  0  0  0  0  0
    4.2029    0.6061   -0.6561 C   0  0  0  0  0  0  0  0  0  0  0  0
    4.6268    0.6668   -1.9893 C   0  0  0  0  0  0  0  0  0  0  0  0
    5.9759    0.5183   -2.3251 C   0  0  0  0  0  0  0  0  0  0  0  0
    6.9222    0.2827   -1.3298 C   0  0  0  0  0  0  0  0  0  0  0  0
    6.5157    0.1840   -0.0001 C   0  0  0  0  0  0  0  0  0  0  0  0
    5.1636    0.3305    0.3302 C   0  0  0  0  0  0  0  0  0  0  0  0
    7.4776   -0.0684    1.0292 C   0  0  0  0  0  0  0  0  0  0  0  0
    8.2753   -0.2734    1.9021 C   0  0  0  0  0  0  0  0  0  0  0  0
   -1.9484   -4.1051   -0.1033 H   0  0  0  0  0  0  0  0  0  0  0  0
   -3.4147   -5.0349    0.2433 H   0  0  0  0  0  0  0  0  0  0  0  0
   -1.9065   -5.4557    1.0798 H   0  0  0  0  0  0  0  0  0  0  0  0
   -2.1800   -2.7715    3.3732 H   0  0  0  0  0  0  0  0  0  0  0  0
   -1.1162   -4.0559    2.7814 H   0  0  0  0  0  0  0  0  0  0  0  0
   -0.5860   -2.5683    0.7610 H   0  0  0  0  0  0  0  0  0  0  0  0
   -0.0973   -1.8747    2.3408 H   0  0  0  0  0  0  0  0  0  0  0  0
    0.8056   -0.5032    0.7909 H   0  0  0  0  0  0  0  0  0  0  0  0
   -2.5884    2.3859   -1.3446 H   0  0  0  0  0  0  0  0  0  0  0  0
   -3.5015    0.5364    2.3381 H   0  0  0  0  0  0  0  0  0  0  0  0
   -3.6439    2.1936    1.6660 H   0  0  0  0  0  0  0  0  0  0  0  0
   -5.8704    0.1076    1.2897 H   0  0  0  0  0  0  0  0  0  0  0  0
   -5.7293    1.0674    2.7722 H   0  0  0  0  0  0  0  0  0  0  0  0
   -5.2066    2.4084   -0.6884 H   0  0  0  0  0  0  0  0  0  0  0  0
   -6.5017    1.1596   -0.6770 H   0  0  0  0  0  0  0  0  0  0  0  0
   -6.9067    2.8879   -0.6393 H   0  0  0  0  0  0  0  0  0  0  0  0
    1.3652    3.8146   -3.0877 H   0  0  0  0  0  0  0  0  0  0  0  0
    2.7417    0.8035    0.7184 H   0  0  0  0  0  0  0  0  0  0  0  0
    3.9073    0.8270   -2.7888 H   0  0  0  0  0  0  0  0  0  0  0  0
    6.2828    0.5824   -3.3658 H   0  0  0  0  0  0  0  0  0  0  0  0
    7.9694    0.1696   -1.5980 H   0  0  0  0  0  0  0  0  0  0  0  0
    4.8640    0.2372    1.3709 H   0  0  0  0  0  0  0  0  0  0  0  0
    8.9836   -0.4530    2.6759 H   0  0  0  0  0  0  0  0  0  0  0  0
  1  2  1  0
  2  3  1  0
  3  4  1  0
  4  5  1  0
  5  6  1  0
  6  7  2  0
  7  8  1  0
  8  9  2  0
  9 10  1  0
 10 11  2  0
 11 12  1  0
 12 13  1  0
 13 14  1  0
 14 15  1  0
 15 16  1  0
  9 17  1  0
 17 18  2  0
 18 19  1  0
 19 20  2  0
 20 21  1  0
 21 22  1  0
 22 23  2  0
 23 24  1  0
 24 25  2  0
 25 26  1  0
 26 27  2  0
 26 28  1  0
 28 29  3  0
 11  6  1  0
 20  8  1  0
 27 22  1  0
  1 30  1  0
  1 31  1  0
  1 32  1  0
  3 33  1  0
  3 34  1  0
  4 35  1  0
  4 36  1  0
  7 37  1  0
 10 38  1  0
 13 39  1  0
 13 40  1  0
 14 41  1  0
 14 42  1  0
 16 43  1  0
 16 44  1  0
 16 45  1  0
 18 46  1  0
 21 47  1  0
 23 48  1  0
 24 49  1  0
 25 50  1  0
 27 51  1  0
 29 52  1  0
M  END
>  <energy_abs>  (264) 
60.88358071199451

>  <SMILES>  (264) 
COCCOc1cc2c(cc1OCCOC)ncnc2Nc3cccc(c3)C#C

>  <cluster_no>  (264) 
264

>  <fda_drugs_id>  (264) 
AAKJLRGGTJKAMG-UHFFFAOYSA-N

>  <initial_conformation_id>  (264) 
30

>  <minimize_method>  (264) 
MMFF

$$$$

     RDKit          3D

 52 54  0  0  0  0  0  0  0  0999 V2000
   -4.6673   -4.5676    1.9942 C   0  0  0  0  0  0  0  0  0  0  0  0
   -3.6113   -4.1134    2.8314 O   0  0  0  0  0  0  0  0  0  0  0  0
   -2.4432   -3.7322    2.1028 C   0  0  0  0  0  0  0  0  0  0  0  0
   -2.5696   -2.3452    1.4696 C   0  0  0  0  0  0  0  0  0  0  0  0
   -1.3307   -2.0300    0.8328 O   0  0  0  0  0  0  0  0  0  0  0  0
   -1.0698   -0.7150    0.5530 C   0  0  0  0  0  0  0  0  0  0  0  0
    0.2988   -0.4492    0.4339 C   0  0  0  0  0  0  0  0  0  0  0  0
    0.7820    0.8498    0.1478 C   0  0  0  0  0  0  0  0  0  0  0  0
   -0.1376    1.8825   -0.0533 C   0  0  0  0  0  0  0  0  0  0  0  0
   -1.4964    1.6029    0.0489 C   0  0  0  0  0  0  0  0  0  0  0  0
   -1.9862    0.3241    0.3545 C   0  0  0  0  0  0  0  0  0  0  0  0
   -3.3206    0.0261    0.3913 O   0  0  0  0  0  0  0  0  0  0  0  0
   -4.2563    1.0779    0.6326 C   0  0  0  0  0  0  0  0  0  0  0  0
   -4.9097    1.5291   -0.6702 C   0  0  0  0  0  0  0  0  0  0  0  0
   -5.8292    2.5844   -0.3935 O   0  0  0  0  0  0  0  0  0  0  0  0
   -6.4649    3.0477   -1.5782 C   0  0  0  0  0  0  0  0  0  0  0  0
    0.2333    3.1302   -0.3508 N   0  0  0  0  0  0  0  0  0  0  0  0
    1.5468    3.3582   -0.4545 C   0  0  0  0  0  0  0  0  0  0  0  0
    2.5186    2.4603   -0.2796 N   0  0  0  0  0  0  0  0  0  0  0  0
    2.1414    1.2074    0.0300 C   0  0  0  0  0  0  0  0  0  0  0  0
    3.1325    0.2145    0.2582 N   0  0  0  0  0  0  0  0  0  0  0  0
    4.5147    0.2617   -0.0361 C   0  0  0  0  0  0  0  0  0  0  0  0
    5.3886   -0.5751    0.6775 C   0  0  0  0  0  0  0  0  0  0  0  0
    6.7546   -0.6144    0.3833 C   0  0  0  0  0  0  0  0  0  0  0  0
    7.2660    0.1670   -0.6504 C   0  0  0  0  0  0  0  0  0  0  0  0
    6.4086    0.9759   -1.3957 C   0  0  0  0  0  0  0  0  0  0  0  0
    5.0415    1.0108   -1.0963 C   0  0  0  0  0  0  0  0  0  0  0  0
    6.9260    1.7626   -2.4742 C   0  0  0  0  0  0  0  0  0  0  0  0
    7.3581    2.4234   -3.3796 C   0  0  0  0  0  0  0  0  0  0  0  0
   -4.3384   -5.4112    1.3787 H   0  0  0  0  0  0  0  0  0  0  0  0
   -5.0379   -3.7591    1.3587 H   0  0  0  0  0  0  0  0  0  0  0  0
   -5.4891   -4.9044    2.6334 H   0  0  0  0  0  0  0  0  0  0  0  0
   -2.1875   -4.4905    1.3517 H   0  0  0  0  0  0  0  0  0  0  0  0
   -1.6085   -3.7202    2.8143 H   0  0  0  0  0  0  0  0  0  0  0  0
   -2.8176   -1.6219    2.2570 H   0  0  0  0  0  0  0  0  0  0  0  0
   -3.3700   -2.3616    0.7226 H   0  0  0  0  0  0  0  0  0  0  0  0
    0.9952   -1.2765    0.5580 H   0  0  0  0  0  0  0  0  0  0  0  0
   -2.1731    2.4305   -0.1447 H   0  0  0  0  0  0  0  0  0  0  0  0
   -3.8331    1.9148    1.2012 H   0  0  0  0  0  0  0  0  0  0  0  0
   -5.0349    0.6659    1.2862 H   0  0  0  0  0  0  0  0  0  0  0  0
   -4.1512    1.8729   -1.3821 H   0  0  0  0  0  0  0  0  0  0  0  0
   -5.4357    0.6843   -1.1309 H   0  0  0  0  0  0  0  0  0  0  0  0
   -7.0337    2.2395   -2.0489 H   0  0  0  0  0  0  0  0  0  0  0  0
   -5.7245    3.4466   -2.2788 H   0  0  0  0  0  0  0  0  0  0  0  0
   -7.1563    3.8500   -1.3067 H   0  0  0  0  0  0  0  0  0  0  0  0
    1.8526    4.3689   -0.7025 H   0  0  0  0  0  0  0  0  0  0  0  0
    2.9599   -0.2198    1.1589 H   0  0  0  0  0  0  0  0  0  0  0  0
    5.0128   -1.2067    1.4788 H   0  0  0  0  0  0  0  0  0  0  0  0
    7.4162   -1.2589    0.9558 H   0  0  0  0  0  0  0  0  0  0  0  0
    8.3285    0.1326   -0.8783 H   0  0  0  0  0  0  0  0  0  0  0  0
    4.3861    1.6264   -1.7069 H   0  0  0  0  0  0  0  0  0  0  0  0
    7.7379    3.0109   -4.1830 H   0  0  0  0  0  0  0  0  0  0  0  0
  1  2  1  0
  2  3  1  0
  3  4  1  0
  4  5  1  0
  5  6  1  0
  6  7  2  0
  7  8  1  0
  8  9  2  0
  9 10  1  0
 10 11  2  0
 11 12  1  0
 12 13  1  0
 13 14  1  0
 14 15  1  0
 15 16  1  0
  9 17  1  0
 17 18  2  0
 18 19  1  0
 19 20  2  0
 20 21  1  0
 21 22  1  0
 22 23  2  0
 23 24  1  0
 24 25  2  0
 25 26  1  0
 26 27  2  0
 26 28  1  0
 28 29  3  0
 11  6  1  0
 20  8  1  0
 27 22  1  0
  1 30  1  0
  1 31  1  0
  1 32  1  0
  3 33  1  0
  3 34  1  0
  4 35  1  0
  4 36  1  0
  7 37  1  0
 10 38  1  0
 13 39  1  0
 13 40  1  0
 14 41  1  0
 14 42  1  0
 16 43  1  0
 16 44  1  0
 16 45  1  0
 18 46  1  0
 21 47  1  0
 23 48  1  0
 24 49  1  0
 25 50  1  0
 27 51  1  0
 29 52  1  0
M  END
>  <energy_abs>  (265) 
58.21310485875862

>  <SMILES>  (265) 
COCCOc1cc2c(cc1OCCOC)ncnc2Nc3cccc(c3)C#C

>  <cluster_no>  (265) 
265

>  <fda_drugs_id>  (265) 
AAKJLRGGTJKAMG-UHFFFAOYSA-N

>  <initial_conformation_id>  (265) 
29

>  <minimize_method>  (265) 
MMFF

$$$$

     RDKit          3D

 52 54  0  0  0  0  0  0  0  0999 V2000
   -2.1762   -5.3792    3.7811 C   0  0  0  0  0  0  0  0  0  0  0  0
   -1.3843   -4.4598    3.0398 O   0  0  0  0  0  0  0  0  0  0  0  0
   -2.1828   -3.4189    2.4770 C   0  0  0  0  0  0  0  0  0  0  0  0
   -1.2858   -2.4606    1.7001 C   0  0  0  0  0  0  0  0  0  0  0  0
   -2.0992   -1.4362    1.1344 O   0  0  0  0  0  0  0  0  0  0  0  0
   -1.4896   -0.4770    0.3676 C   0  0  0  0  0  0  0  0  0  0  0  0
   -0.1172   -0.4107    0.1214 C   0  0  0  0  0  0  0  0  0  0  0  0
    0.4330    0.6189   -0.6848 C   0  0  0  0  0  0  0  0  0  0  0  0
   -0.4140    1.5947   -1.2223 C   0  0  0  0  0  0  0  0  0  0  0  0
   -1.7784    1.5161   -0.9714 C   0  0  0  0  0  0  0  0  0  0  0  0
   -2.3331    0.4960   -0.1917 C   0  0  0  0  0  0  0  0  0  0  0  0
   -3.6677    0.3655    0.0970 O   0  0  0  0  0  0  0  0  0  0  0  0
   -4.6060    1.2587   -0.4989 C   0  0  0  0  0  0  0  0  0  0  0  0
   -4.7914    2.5151    0.3477 C   0  0  0  0  0  0  0  0  0  0  0  0
   -5.7344    3.3768   -0.2894 O   0  0  0  0  0  0  0  0  0  0  0  0
   -5.9490    4.5634    0.4640 C   0  0  0  0  0  0  0  0  0  0  0  0
    0.0336    2.6075   -1.9685 N   0  0  0  0  0  0  0  0  0  0  0  0
    1.3517    2.6599   -2.1844 C   0  0  0  0  0  0  0  0  0  0  0  0
    2.2578    1.7896   -1.7350 N   0  0  0  0  0  0  0  0  0  0  0  0
    1.8018    0.7643   -0.9940 C   0  0  0  0  0  0  0  0  0  0  0  0
    2.7178   -0.2164   -0.5235 N   0  0  0  0  0  0  0  0  0  0  0  0
    4.1294   -0.1470   -0.4733 C   0  0  0  0  0  0  0  0  0  0  0  0
    4.8676   -1.3416   -0.4545 C   0  0  0  0  0  0  0  0  0  0  0  0
    6.2603   -1.3294   -0.3391 C   0  0  0  0  0  0  0  0  0  0  0  0
    6.9368   -0.1184   -0.2143 C   0  0  0  0  0  0  0  0  0  0  0  0
    6.2188    1.0768   -0.1926 C   0  0  0  0  0  0  0  0  0  0  0  0
    4.8241    1.0583   -0.3083 C   0  0  0  0  0  0  0  0  0  0  0  0
    6.9084    2.3217   -0.0408 C   0  0  0  0  0  0  0  0  0  0  0  0
    7.4865    3.3666    0.0862 C   0  0  0  0  0  0  0  0  0  0  0  0
   -2.6743   -4.8718    4.6129 H   0  0  0  0  0  0  0  0  0  0  0  0
   -1.5173   -6.1514    4.1872 H   0  0  0  0  0  0  0  0  0  0  0  0
   -2.9166   -5.8569    3.1324 H   0  0  0  0  0  0  0  0  0  0  0  0
   -2.9393   -3.8462    1.8077 H   0  0  0  0  0  0  0  0  0  0  0  0
   -2.7079   -2.8755    3.2718 H   0  0  0  0  0  0  0  0  0  0  0  0
   -0.5431   -2.0317    2.3841 H   0  0  0  0  0  0  0  0  0  0  0  0
   -0.7622   -3.0190    0.9142 H   0  0  0  0  0  0  0  0  0  0  0  0
    0.5559   -1.1386    0.5623 H   0  0  0  0  0  0  0  0  0  0  0  0
   -2.3971    2.2948   -1.4066 H   0  0  0  0  0  0  0  0  0  0  0  0
   -4.3748    1.4839   -1.5467 H   0  0  0  0  0  0  0  0  0  0  0  0
   -5.5653    0.7278   -0.5394 H   0  0  0  0  0  0  0  0  0  0  0  0
   -3.8385    3.0404    0.4752 H   0  0  0  0  0  0  0  0  0  0  0  0
   -5.1513    2.2372    1.3458 H   0  0  0  0  0  0  0  0  0  0  0  0
   -6.3509    4.3219    1.4527 H   0  0  0  0  0  0  0  0  0  0  0  0
   -5.0168    5.1280    0.5629 H   0  0  0  0  0  0  0  0  0  0  0  0
   -6.6771    5.1817   -0.0677 H   0  0  0  0  0  0  0  0  0  0  0  0
    1.7196    3.4855   -2.7838 H   0  0  0  0  0  0  0  0  0  0  0  0
    2.4054   -1.1292   -0.8385 H   0  0  0  0  0  0  0  0  0  0  0  0
    4.3631   -2.3013   -0.5342 H   0  0  0  0  0  0  0  0  0  0  0  0
    6.8148   -2.2641   -0.3402 H   0  0  0  0  0  0  0  0  0  0  0  0
    8.0201   -0.1123   -0.1230 H   0  0  0  0  0  0  0  0  0  0  0  0
    4.2804    1.9982   -0.2619 H   0  0  0  0  0  0  0  0  0  0  0  0
    7.9968    4.2945    0.1980 H   0  0  0  0  0  0  0  0  0  0  0  0
  1  2  1  0
  2  3  1  0
  3  4  1  0
  4  5  1  0
  5  6  1  0
  6  7  2  0
  7  8  1  0
  8  9  2  0
  9 10  1  0
 10 11  2  0
 11 12  1  0
 12 13  1  0
 13 14  1  0
 14 15  1  0
 15 16  1  0
  9 17  1  0
 17 18  2  0
 18 19  1  0
 19 20  2  0
 20 21  1  0
 21 22  1  0
 22 23  2  0
 23 24  1  0
 24 25  2  0
 25 26  1  0
 26 27  2  0
 26 28  1  0
 28 29  3  0
 11  6  1  0
 20  8  1  0
 27 22  1  0
  1 30  1  0
  1 31  1  0
  1 32  1  0
  3 33  1  0
  3 34  1  0
  4 35  1  0
  4 36  1  0
  7 37  1  0
 10 38  1  0
 13 39  1  0
 13 40  1  0
 14 41  1  0
 14 42  1  0
 16 43  1  0
 16 44  1  0
 16 45  1  0
 18 46  1  0
 21 47  1  0
 23 48  1  0
 24 49  1  0
 25 50  1  0
 27 51  1  0
 29 52  1  0
M  END
>  <energy_abs>  (266) 
56.78211326214365

>  <SMILES>  (266) 
COCCOc1cc2c(cc1OCCOC)ncnc2Nc3cccc(c3)C#C

>  <cluster_no>  (266) 
266

>  <fda_drugs_id>  (266) 
AAKJLRGGTJKAMG-UHFFFAOYSA-N

>  <initial_conformation_id>  (266) 
28

>  <minimize_method>  (266) 
MMFF

$$$$

     RDKit          3D

 52 54  0  0  0  0  0  0  0  0999 V2000
   -1.7271   -4.8624    2.8595 C   0  0  0  0  0  0  0  0  0  0  0  0
   -0.7894   -4.1502    2.0594 O   0  0  0  0  0  0  0  0  0  0  0  0
   -1.4120   -3.2936    1.1007 C   0  0  0  0  0  0  0  0  0  0  0  0
   -1.8716   -1.9754    1.7230 C   0  0  0  0  0  0  0  0  0  0  0  0
   -2.3446   -1.0925    0.7033 O   0  0  0  0  0  0  0  0  0  0  0  0
   -1.6007    0.0406    0.5027 C   0  0  0  0  0  0  0  0  0  0  0  0
   -0.2066    0.0253    0.4422 C   0  0  0  0  0  0  0  0  0  0  0  0
    0.5231    1.2143    0.1940 C   0  0  0  0  0  0  0  0  0  0  0  0
   -0.1721    2.4101   -0.0266 C   0  0  0  0  0  0  0  0  0  0  0  0
   -1.5618    2.4019    0.0148 C   0  0  0  0  0  0  0  0  0  0  0  0
   -2.2904    1.2354    0.2676 C   0  0  0  0  0  0  0  0  0  0  0  0
   -3.6583    1.1654    0.3290 O   0  0  0  0  0  0  0  0  0  0  0  0
   -4.4030    2.3055   -0.1046 C   0  0  0  0  0  0  0  0  0  0  0  0
   -5.8980    1.9699   -0.0644 C   0  0  0  0  0  0  0  0  0  0  0  0
   -6.2848    0.9415   -0.9813 O   0  0  0  0  0  0  0  0  0  0  0  0
   -6.2894    1.3560   -2.3393 C   0  0  0  0  0  0  0  0  0  0  0  0
    0.4453    3.5664   -0.2823 N   0  0  0  0  0  0  0  0  0  0  0  0
    1.7812    3.5369   -0.3320 C   0  0  0  0  0  0  0  0  0  0  0  0
    2.5532    2.4657   -0.1379 N   0  0  0  0  0  0  0  0  0  0  0  0
    1.9294    1.3052    0.1332 C   0  0  0  0  0  0  0  0  0  0  0  0
    2.7021    0.1379    0.3831 N   0  0  0  0  0  0  0  0  0  0  0  0
    4.0771   -0.0793    0.1353 C   0  0  0  0  0  0  0  0  0  0  0  0
    4.7495   -1.0714    0.8692 C   0  0  0  0  0  0  0  0  0  0  0  0
    6.0919   -1.3699    0.6206 C   0  0  0  0  0  0  0  0  0  0  0  0
    6.7783   -0.6966   -0.3876 C   0  0  0  0  0  0  0  0  0  0  0  0
    6.1175    0.2640   -1.1536 C   0  0  0  0  0  0  0  0  0  0  0  0
    4.7731    0.5589   -0.8997 C   0  0  0  0  0  0  0  0  0  0  0  0
    6.8122    0.9394   -2.2073 C   0  0  0  0  0  0  0  0  0  0  0  0
    7.3948    1.5054   -3.0918 C   0  0  0  0  0  0  0  0  0  0  0  0
   -2.3208   -4.1753    3.4708 H   0  0  0  0  0  0  0  0  0  0  0  0
   -2.3817   -5.4751    2.2312 H   0  0  0  0  0  0  0  0  0  0  0  0
   -1.1718   -5.5257    3.5300 H   0  0  0  0  0  0  0  0  0  0  0  0
   -2.2414   -3.8044    0.5962 H   0  0  0  0  0  0  0  0  0  0  0  0
   -0.6689   -3.0894    0.3219 H   0  0  0  0  0  0  0  0  0  0  0  0
   -2.7168   -2.1646    2.3952 H   0  0  0  0  0  0  0  0  0  0  0  0
   -1.0900   -1.5381    2.3575 H   0  0  0  0  0  0  0  0  0  0  0  0
    0.3262   -0.9139    0.5533 H   0  0  0  0  0  0  0  0  0  0  0  0
   -2.0623    3.3494   -0.1564 H   0  0  0  0  0  0  0  0  0  0  0  0
   -4.1017    2.5853   -1.1197 H   0  0  0  0  0  0  0  0  0  0  0  0
   -4.2205    3.1414    0.5814 H   0  0  0  0  0  0  0  0  0  0  0  0
   -6.1529    1.5982    0.9343 H   0  0  0  0  0  0  0  0  0  0  0  0
   -6.4993    2.8678   -0.2484 H   0  0  0  0  0  0  0  0  0  0  0  0
   -6.7133    0.5467   -2.9411 H   0  0  0  0  0  0  0  0  0  0  0  0
   -6.9099    2.2471   -2.4719 H   0  0  0  0  0  0  0  0  0  0  0  0
   -5.2732    1.5450   -2.6938 H   0  0  0  0  0  0  0  0  0  0  0  0
    2.2864    4.4725   -0.5483 H   0  0  0  0  0  0  0  0  0  0  0  0
    2.4218   -0.2575    1.2755 H   0  0  0  0  0  0  0  0  0  0  0  0
    4.2325   -1.6244    1.6501 H   0  0  0  0  0  0  0  0  0  0  0  0
    6.5979   -2.1319    1.2084 H   0  0  0  0  0  0  0  0  0  0  0  0
    7.8219   -0.9323   -0.5801 H   0  0  0  0  0  0  0  0  0  0  0  0
    4.2687    1.2904   -1.5261 H   0  0  0  0  0  0  0  0  0  0  0  0
    7.9094    2.0087   -3.8767 H   0  0  0  0  0  0  0  0  0  0  0  0
  1  2  1  0
  2  3  1  0
  3  4  1  0
  4  5  1  0
  5  6  1  0
  6  7  2  0
  7  8  1  0
  8  9  2  0
  9 10  1  0
 10 11  2  0
 11 12  1  0
 12 13  1  0
 13 14  1  0
 14 15  1  0
 15 16  1  0
  9 17  1  0
 17 18  2  0
 18 19  1  0
 19 20  2  0
 20 21  1  0
 21 22  1  0
 22 23  2  0
 23 24  1  0
 24 25  2  0
 25 26  1  0
 26 27  2  0
 26 28  1  0
 28 29  3  0
 11  6  1  0
 20  8  1  0
 27 22  1  0
  1 30  1  0
  1 31  1  0
  1 32  1  0
  3 33  1  0
  3 34  1  0
  4 35  1  0
  4 36  1  0
  7 37  1  0
 10 38  1  0
 13 39  1  0
 13 40  1  0
 14 41  1  0
 14 42  1  0
 16 43  1  0
 16 44  1  0
 16 45  1  0
 18 46  1  0
 21 47  1  0
 23 48  1  0
 24 49  1  0
 25 50  1  0
 27 51  1  0
 29 52  1  0
M  END
>  <energy_abs>  (267) 
62.64887844357751

>  <SMILES>  (267) 
COCCOc1cc2c(cc1OCCOC)ncnc2Nc3cccc(c3)C#C

>  <cluster_no>  (267) 
267

>  <fda_drugs_id>  (267) 
AAKJLRGGTJKAMG-UHFFFAOYSA-N

>  <initial_conformation_id>  (267) 
27

>  <minimize_method>  (267) 
MMFF

$$$$

     RDKit          3D

 52 54  0  0  0  0  0  0  0  0999 V2000
   -4.3342   -4.3119    2.1017 C   0  0  0  0  0  0  0  0  0  0  0  0
   -2.9154   -4.3603    2.0410 O   0  0  0  0  0  0  0  0  0  0  0  0
   -2.2932   -3.1604    2.5018 C   0  0  0  0  0  0  0  0  0  0  0  0
   -2.2642   -2.0767    1.4262 C   0  0  0  0  0  0  0  0  0  0  0  0
   -1.5215   -0.9576    1.9290 O   0  0  0  0  0  0  0  0  0  0  0  0
   -1.1177   -0.1366    0.9075 C   0  0  0  0  0  0  0  0  0  0  0  0
    0.2435   -0.1289    0.6095 C   0  0  0  0  0  0  0  0  0  0  0  0
    0.7490    0.6986   -0.4204 C   0  0  0  0  0  0  0  0  0  0  0  0
   -0.1327    1.5379   -1.1147 C   0  0  0  0  0  0  0  0  0  0  0  0
   -1.4835    1.5325   -0.7788 C   0  0  0  0  0  0  0  0  0  0  0  0
   -1.9958    0.7165    0.2342 C   0  0  0  0  0  0  0  0  0  0  0  0
   -3.3067    0.6873    0.6287 O   0  0  0  0  0  0  0  0  0  0  0  0
   -4.1792    1.6845    0.0952 C   0  0  0  0  0  0  0  0  0  0  0  0
   -5.5419    1.5522    0.7766 C   0  0  0  0  0  0  0  0  0  0  0  0
   -6.4657    2.5477    0.3378 O   0  0  0  0  0  0  0  0  0  0  0  0
   -7.0749    2.2355   -0.9094 C   0  0  0  0  0  0  0  0  0  0  0  0
    0.2694    2.3555   -2.0902 N   0  0  0  0  0  0  0  0  0  0  0  0
    1.5749    2.3526   -2.3777 C   0  0  0  0  0  0  0  0  0  0  0  0
    2.5076    1.5978   -1.7949 N   0  0  0  0  0  0  0  0  0  0  0  0
    2.0989    0.7634   -0.8226 C   0  0  0  0  0  0  0  0  0  0  0  0
    3.0448   -0.0913   -0.1923 N   0  0  0  0  0  0  0  0  0  0  0  0
    4.4565   -0.0396   -0.2574 C   0  0  0  0  0  0  0  0  0  0  0  0
    5.1907   -1.2093   -0.0041 C   0  0  0  0  0  0  0  0  0  0  0  0
    6.5882   -1.1989    0.0042 C   0  0  0  0  0  0  0  0  0  0  0  0
    7.2759   -0.0078   -0.2164 C   0  0  0  0  0  0  0  0  0  0  0  0
    6.5652    1.1722   -0.4316 C   0  0  0  0  0  0  0  0  0  0  0  0
    5.1656    1.1552   -0.4379 C   0  0  0  0  0  0  0  0  0  0  0  0
    7.2663    2.4035   -0.6285 C   0  0  0  0  0  0  0  0  0  0  0  0
    7.8485    3.4411   -0.7872 C   0  0  0  0  0  0  0  0  0  0  0  0
   -4.7329   -3.5442    1.4309 H   0  0  0  0  0  0  0  0  0  0  0  0
   -4.7214   -5.2811    1.7763 H   0  0  0  0  0  0  0  0  0  0  0  0
   -4.6694   -4.1322    3.1282 H   0  0  0  0  0  0  0  0  0  0  0  0
   -1.2629   -3.4140    2.7760 H   0  0  0  0  0  0  0  0  0  0  0  0
   -2.7699   -2.7979    3.4209 H   0  0  0  0  0  0  0  0  0  0  0  0
   -1.8060   -2.4881    0.5162 H   0  0  0  0  0  0  0  0  0  0  0  0
   -3.2850   -1.7698    1.1810 H   0  0  0  0  0  0  0  0  0  0  0  0
    0.9076   -0.7623    1.1911 H   0  0  0  0  0  0  0  0  0  0  0  0
   -2.1291    2.1990   -1.3425 H   0  0  0  0  0  0  0  0  0  0  0  0
   -3.7847    2.6920    0.2795 H   0  0  0  0  0  0  0  0  0  0  0  0
   -4.2914    1.5389   -0.9837 H   0  0  0  0  0  0  0  0  0  0  0  0
   -5.9594    0.5462    0.6406 H   0  0  0  0  0  0  0  0  0  0  0  0
   -5.4114    1.6816    1.8578 H   0  0  0  0  0  0  0  0  0  0  0  0
   -7.6345    1.2969   -0.8369 H   0  0  0  0  0  0  0  0  0  0  0  0
   -7.7740    3.0360   -1.1612 H   0  0  0  0  0  0  0  0  0  0  0  0
   -6.3272    2.1745   -1.7057 H   0  0  0  0  0  0  0  0  0  0  0  0
    1.9078    3.0261   -3.1600 H   0  0  0  0  0  0  0  0  0  0  0  0
    2.7080   -1.0473   -0.2428 H   0  0  0  0  0  0  0  0  0  0  0  0
    4.6789   -2.1492    0.1861 H   0  0  0  0  0  0  0  0  0  0  0  0
    7.1380   -2.1174    0.1894 H   0  0  0  0  0  0  0  0  0  0  0  0
    8.3626   -0.0026   -0.2064 H   0  0  0  0  0  0  0  0  0  0  0  0
    4.6300    2.0902   -0.5791 H   0  0  0  0  0  0  0  0  0  0  0  0
    8.3622    4.3610   -0.9308 H   0  0  0  0  0  0  0  0  0  0  0  0
  1  2  1  0
  2  3  1  0
  3  4  1  0
  4  5  1  0
  5  6  1  0
  6  7  2  0
  7  8  1  0
  8  9  2  0
  9 10  1  0
 10 11  2  0
 11 12  1  0
 12 13  1  0
 13 14  1  0
 14 15  1  0
 15 16  1  0
  9 17  1  0
 17 18  2  0
 18 19  1  0
 19 20  2  0
 20 21  1  0
 21 22  1  0
 22 23  2  0
 23 24  1  0
 24 25  2  0
 25 26  1  0
 26 27  2  0
 26 28  1  0
 28 29  3  0
 11  6  1  0
 20  8  1  0
 27 22  1  0
  1 30  1  0
  1 31  1  0
  1 32  1  0
  3 33  1  0
  3 34  1  0
  4 35  1  0
  4 36  1  0
  7 37  1  0
 10 38  1  0
 13 39  1  0
 13 40  1  0
 14 41  1  0
 14 42  1  0
 16 43  1  0
 16 44  1  0
 16 45  1  0
 18 46  1  0
 21 47  1  0
 23 48  1  0
 24 49  1  0
 25 50  1  0
 27 51  1  0
 29 52  1  0
M  END
>  <energy_abs>  (268) 
58.483691873932

>  <SMILES>  (268) 
COCCOc1cc2c(cc1OCCOC)ncnc2Nc3cccc(c3)C#C

>  <cluster_no>  (268) 
268

>  <fda_drugs_id>  (268) 
AAKJLRGGTJKAMG-UHFFFAOYSA-N

>  <initial_conformation_id>  (268) 
26

>  <minimize_method>  (268) 
MMFF

$$$$

     RDKit          3D

 52 54  0  0  0  0  0  0  0  0999 V2000
   -3.9409   -4.1755    2.6989 C   0  0  0  0  0  0  0  0  0  0  0  0
   -2.5689   -3.9922    2.3713 O   0  0  0  0  0  0  0  0  0  0  0  0
   -2.3351   -3.8097    0.9737 C   0  0  0  0  0  0  0  0  0  0  0  0
   -2.6232   -2.3832    0.4976 C   0  0  0  0  0  0  0  0  0  0  0  0
   -1.6782   -1.4948    1.1072 O   0  0  0  0  0  0  0  0  0  0  0  0
   -1.2970   -0.4213    0.3475 C   0  0  0  0  0  0  0  0  0  0  0  0
    0.0655   -0.1250    0.4297 C   0  0  0  0  0  0  0  0  0  0  0  0
    0.6229    0.9615   -0.2827 C   0  0  0  0  0  0  0  0  0  0  0  0
   -0.2142    1.7501   -1.0769 C   0  0  0  0  0  0  0  0  0  0  0  0
   -1.5745    1.4592   -1.1234 C   0  0  0  0  0  0  0  0  0  0  0  0
   -2.1417    0.3921   -0.4151 C   0  0  0  0  0  0  0  0  0  0  0  0
   -3.4755    0.0897   -0.4061 O   0  0  0  0  0  0  0  0  0  0  0  0
   -4.4159    0.9589   -1.0459 C   0  0  0  0  0  0  0  0  0  0  0  0
   -4.8023    2.1337   -0.1465 C   0  0  0  0  0  0  0  0  0  0  0  0
   -5.6626    1.6682    0.8989 O   0  0  0  0  0  0  0  0  0  0  0  0
   -6.0193    2.7127    1.7941 C   0  0  0  0  0  0  0  0  0  0  0  0
    0.2366    2.7794   -1.7948 N   0  0  0  0  0  0  0  0  0  0  0  0
    1.5490    3.0298   -1.7298 C   0  0  0  0  0  0  0  0  0  0  0  0
    2.4444    2.3591   -1.0055 N   0  0  0  0  0  0  0  0  0  0  0  0
    1.9847    1.3259   -0.2764 C   0  0  0  0  0  0  0  0  0  0  0  0
    2.8890    0.5838    0.5307 N   0  0  0  0  0  0  0  0  0  0  0  0
    4.3020    0.5808    0.4894 C   0  0  0  0  0  0  0  0  0  0  0  0
    5.0136    0.2044    1.6402 C   0  0  0  0  0  0  0  0  0  0  0  0
    6.4095    0.1232    1.6335 C   0  0  0  0  0  0  0  0  0  0  0  0
    7.1162    0.3925    0.4631 C   0  0  0  0  0  0  0  0  0  0  0  0
    6.4251    0.7284   -0.6995 C   0  0  0  0  0  0  0  0  0  0  0  0
    5.0271    0.8112   -0.6863 C   0  0  0  0  0  0  0  0  0  0  0  0
    7.1431    0.9640   -1.9162 C   0  0  0  0  0  0  0  0  0  0  0  0
    7.7395    1.1477   -2.9414 C   0  0  0  0  0  0  0  0  0  0  0  0
   -4.5343   -3.2961    2.4392 H   0  0  0  0  0  0  0  0  0  0  0  0
   -4.0143   -4.3314    3.7799 H   0  0  0  0  0  0  0  0  0  0  0  0
   -4.3374   -5.0624    2.1931 H   0  0  0  0  0  0  0  0  0  0  0  0
   -2.9201   -4.5371    0.4014 H   0  0  0  0  0  0  0  0  0  0  0  0
   -1.2778   -4.0289    0.8072 H   0  0  0  0  0  0  0  0  0  0  0  0
   -3.6291   -2.0806    0.7916 H   0  0  0  0  0  0  0  0  0  0  0  0
   -2.5333   -2.3677   -0.5973 H   0  0  0  0  0  0  0  0  0  0  0  0
    0.6968   -0.7699    1.0421 H   0  0  0  0  0  0  0  0  0  0  0  0
   -2.1790    2.1110   -1.7432 H   0  0  0  0  0  0  0  0  0  0  0  0
   -4.0586    1.2891   -2.0266 H   0  0  0  0  0  0  0  0  0  0  0  0
   -5.3054    0.3477   -1.2362 H   0  0  0  0  0  0  0  0  0  0  0  0
   -3.9169    2.5998    0.2992 H   0  0  0  0  0  0  0  0  0  0  0  0
   -5.3477    2.8778   -0.7391 H   0  0  0  0  0  0  0  0  0  0  0  0
   -6.5554    3.5060    1.2661 H   0  0  0  0  0  0  0  0  0  0  0  0
   -6.6771    2.2981    2.5618 H   0  0  0  0  0  0  0  0  0  0  0  0
   -5.1277    3.1185    2.2805 H   0  0  0  0  0  0  0  0  0  0  0  0
    1.9219    3.8594   -2.3211 H   0  0  0  0  0  0  0  0  0  0  0  0
    2.5421    0.5716    1.4843 H   0  0  0  0  0  0  0  0  0  0  0  0
    4.4855   -0.0284    2.5630 H   0  0  0  0  0  0  0  0  0  0  0  0
    6.9430   -0.1587    2.5361 H   0  0  0  0  0  0  0  0  0  0  0  0
    8.2017    0.3231    0.4596 H   0  0  0  0  0  0  0  0  0  0  0  0
    4.5042    1.0469   -1.6089 H   0  0  0  0  0  0  0  0  0  0  0  0
    8.2620    1.2996   -3.8532 H   0  0  0  0  0  0  0  0  0  0  0  0
  1  2  1  0
  2  3  1  0
  3  4  1  0
  4  5  1  0
  5  6  1  0
  6  7  2  0
  7  8  1  0
  8  9  2  0
  9 10  1  0
 10 11  2  0
 11 12  1  0
 12 13  1  0
 13 14  1  0
 14 15  1  0
 15 16  1  0
  9 17  1  0
 17 18  2  0
 18 19  1  0
 19 20  2  0
 20 21  1  0
 21 22  1  0
 22 23  2  0
 23 24  1  0
 24 25  2  0
 25 26  1  0
 26 27  2  0
 26 28  1  0
 28 29  3  0
 11  6  1  0
 20  8  1  0
 27 22  1  0
  1 30  1  0
  1 31  1  0
  1 32  1  0
  3 33  1  0
  3 34  1  0
  4 35  1  0
  4 36  1  0
  7 37  1  0
 10 38  1  0
 13 39  1  0
 13 40  1  0
 14 41  1  0
 14 42  1  0
 16 43  1  0
 16 44  1  0
 16 45  1  0
 18 46  1  0
 21 47  1  0
 23 48  1  0
 24 49  1  0
 25 50  1  0
 27 51  1  0
 29 52  1  0
M  END
>  <energy_abs>  (269) 
61.984549009145105

>  <SMILES>  (269) 
COCCOc1cc2c(cc1OCCOC)ncnc2Nc3cccc(c3)C#C

>  <cluster_no>  (269) 
269

>  <fda_drugs_id>  (269) 
AAKJLRGGTJKAMG-UHFFFAOYSA-N

>  <initial_conformation_id>  (269) 
25

>  <minimize_method>  (269) 
MMFF

$$$$

     RDKit          3D

 52 54  0  0  0  0  0  0  0  0999 V2000
   -3.6114   -3.4824    1.2571 C   0  0  0  0  0  0  0  0  0  0  0  0
   -2.6829   -2.7661    0.4570 O   0  0  0  0  0  0  0  0  0  0  0  0
   -1.3947   -2.6120    1.0555 C   0  0  0  0  0  0  0  0  0  0  0  0
   -1.3799   -1.6872    2.2802 C   0  0  0  0  0  0  0  0  0  0  0  0
   -1.9420   -0.3960    2.0257 O   0  0  0  0  0  0  0  0  0  0  0  0
   -1.2907    0.4503    1.1750 C   0  0  0  0  0  0  0  0  0  0  0  0
    0.0952    0.4781    1.0157 C   0  0  0  0  0  0  0  0  0  0  0  0
    0.7213    1.4240    0.1582 C   0  0  0  0  0  0  0  0  0  0  0  0
   -0.0648    2.3471   -0.5422 C   0  0  0  0  0  0  0  0  0  0  0  0
   -1.4378    2.3277   -0.3536 C   0  0  0  0  0  0  0  0  0  0  0  0
   -2.0567    1.3905    0.4797 C   0  0  0  0  0  0  0  0  0  0  0  0
   -3.4187    1.5175    0.5888 O   0  0  0  0  0  0  0  0  0  0  0  0
   -4.1298    0.3107    0.2837 C   0  0  0  0  0  0  0  0  0  0  0  0
   -5.5250    0.6907   -0.2037 C   0  0  0  0  0  0  0  0  0  0  0  0
   -6.2661   -0.4876   -0.5196 O   0  0  0  0  0  0  0  0  0  0  0  0
   -7.5728   -0.1729   -0.9832 C   0  0  0  0  0  0  0  0  0  0  0  0
    0.4528    3.2493   -1.3801 N   0  0  0  0  0  0  0  0  0  0  0  0
    1.7802    3.2328   -1.5364 C   0  0  0  0  0  0  0  0  0  0  0  0
    2.6358    2.4157   -0.9190 N   0  0  0  0  0  0  0  0  0  0  0  0
    2.1108    1.5217   -0.0626 C   0  0  0  0  0  0  0  0  0  0  0  0
    2.9813    0.6693    0.6739 N   0  0  0  0  0  0  0  0  0  0  0  0
    4.3488    0.4015    0.4276 C   0  0  0  0  0  0  0  0  0  0  0  0
    5.1671    0.0002    1.4959 C   0  0  0  0  0  0  0  0  0  0  0  0
    6.5072   -0.3393    1.2911 C   0  0  0  0  0  0  0  0  0  0  0  0
    7.0432   -0.3091    0.0056 C   0  0  0  0  0  0  0  0  0  0  0  0
    6.2365    0.0505   -1.0735 C   0  0  0  0  0  0  0  0  0  0  0  0
    4.8955    0.3904   -0.8625 C   0  0  0  0  0  0  0  0  0  0  0  0
    6.7793    0.0629   -2.3975 C   0  0  0  0  0  0  0  0  0  0  0  0
    7.2371    0.0764   -3.5073 C   0  0  0  0  0  0  0  0  0  0  0  0
   -3.1883   -4.4359    1.5875 H   0  0  0  0  0  0  0  0  0  0  0  0
   -4.4987   -3.6865    0.6503 H   0  0  0  0  0  0  0  0  0  0  0  0
   -3.9208   -2.8846    2.1187 H   0  0  0  0  0  0  0  0  0  0  0  0
   -0.7460   -2.2034    0.2748 H   0  0  0  0  0  0  0  0  0  0  0  0
   -0.9949   -3.5972    1.3195 H   0  0  0  0  0  0  0  0  0  0  0  0
   -0.3763   -1.6074    2.7101 H   0  0  0  0  0  0  0  0  0  0  0  0
   -1.9998   -2.1277    3.0685 H   0  0  0  0  0  0  0  0  0  0  0  0
    0.7219   -0.2248    1.5533 H   0  0  0  0  0  0  0  0  0  0  0  0
   -2.0512    3.0561   -0.8787 H   0  0  0  0  0  0  0  0  0  0  0  0
   -3.6232   -0.2788   -0.4919 H   0  0  0  0  0  0  0  0  0  0  0  0
   -4.2290   -0.3048    1.1832 H   0  0  0  0  0  0  0  0  0  0  0  0
   -6.0466    1.2628    0.5739 H   0  0  0  0  0  0  0  0  0  0  0  0
   -5.4451    1.3316   -1.0901 H   0  0  0  0  0  0  0  0  0  0  0  0
   -8.0751   -1.1047   -1.2569 H   0  0  0  0  0  0  0  0  0  0  0  0
   -8.1493    0.3156   -0.1914 H   0  0  0  0  0  0  0  0  0  0  0  0
   -7.5229    0.4708   -1.8670 H   0  0  0  0  0  0  0  0  0  0  0  0
    2.2026    3.9543   -2.2269 H   0  0  0  0  0  0  0  0  0  0  0  0
    2.8123    0.8252    1.6631 H   0  0  0  0  0  0  0  0  0  0  0  0
    4.7701   -0.0444    2.5070 H   0  0  0  0  0  0  0  0  0  0  0  0
    7.1305   -0.6305    2.1326 H   0  0  0  0  0  0  0  0  0  0  0  0
    8.0854   -0.5754   -0.1505 H   0  0  0  0  0  0  0  0  0  0  0  0
    4.2742    0.6431   -1.7181 H   0  0  0  0  0  0  0  0  0  0  0  0
    7.6420    0.0917   -4.4918 H   0  0  0  0  0  0  0  0  0  0  0  0
  1  2  1  0
  2  3  1  0
  3  4  1  0
  4  5  1  0
  5  6  1  0
  6  7  2  0
  7  8  1  0
  8  9  2  0
  9 10  1  0
 10 11  2  0
 11 12  1  0
 12 13  1  0
 13 14  1  0
 14 15  1  0
 15 16  1  0
  9 17  1  0
 17 18  2  0
 18 19  1  0
 19 20  2  0
 20 21  1  0
 21 22  1  0
 22 23  2  0
 23 24  1  0
 24 25  2  0
 25 26  1  0
 26 27  2  0
 26 28  1  0
 28 29  3  0
 11  6  1  0
 20  8  1  0
 27 22  1  0
  1 30  1  0
  1 31  1  0
  1 32  1  0
  3 33  1  0
  3 34  1  0
  4 35  1  0
  4 36  1  0
  7 37  1  0
 10 38  1  0
 13 39  1  0
 13 40  1  0
 14 41  1  0
 14 42  1  0
 16 43  1  0
 16 44  1  0
 16 45  1  0
 18 46  1  0
 21 47  1  0
 23 48  1  0
 24 49  1  0
 25 50  1  0
 27 51  1  0
 29 52  1  0
M  END
>  <energy_abs>  (270) 
61.02113384951134

>  <SMILES>  (270) 
COCCOc1cc2c(cc1OCCOC)ncnc2Nc3cccc(c3)C#C

>  <cluster_no>  (270) 
270

>  <fda_drugs_id>  (270) 
AAKJLRGGTJKAMG-UHFFFAOYSA-N

>  <initial_conformation_id>  (270) 
24

>  <minimize_method>  (270) 
MMFF

$$$$

     RDKit          3D

 52 54  0  0  0  0  0  0  0  0999 V2000
   -1.1167   -4.3488    4.2569 C   0  0  0  0  0  0  0  0  0  0  0  0
   -1.4894   -4.5451    2.8993 O   0  0  0  0  0  0  0  0  0  0  0  0
   -2.2211   -3.4441    2.3596 C   0  0  0  0  0  0  0  0  0  0  0  0
   -1.2939   -2.3515    1.8283 C   0  0  0  0  0  0  0  0  0  0  0  0
   -2.0958   -1.2958    1.3045 O   0  0  0  0  0  0  0  0  0  0  0  0
   -1.4623   -0.2211    0.7360 C   0  0  0  0  0  0  0  0  0  0  0  0
   -0.0776   -0.0671    0.6529 C   0  0  0  0  0  0  0  0  0  0  0  0
    0.4959    1.0798    0.0453 C   0  0  0  0  0  0  0  0  0  0  0  0
   -0.3430    2.0598   -0.4974 C   0  0  0  0  0  0  0  0  0  0  0  0
   -1.7196    1.8960   -0.4050 C   0  0  0  0  0  0  0  0  0  0  0  0
   -2.2950    0.7788    0.2089 C   0  0  0  0  0  0  0  0  0  0  0  0
   -3.6431    0.5564    0.3292 O   0  0  0  0  0  0  0  0  0  0  0  0
   -4.5611    1.5746   -0.0630 C   0  0  0  0  0  0  0  0  0  0  0  0
   -4.9494    1.4330   -1.5350 C   0  0  0  0  0  0  0  0  0  0  0  0
   -5.8203    2.4808   -1.9628 O   0  0  0  0  0  0  0  0  0  0  0  0
   -7.1784    2.2553   -1.6087 C   0  0  0  0  0  0  0  0  0  0  0  0
    0.1239    3.1525   -1.1061 N   0  0  0  0  0  0  0  0  0  0  0  0
    1.4523    3.2761   -1.1880 C   0  0  0  0  0  0  0  0  0  0  0  0
    2.3532    2.4187   -0.7045 N   0  0  0  0  0  0  0  0  0  0  0  0
    1.8793    1.3260   -0.0807 C   0  0  0  0  0  0  0  0  0  0  0  0
    2.7945    0.4006    0.4931 N   0  0  0  0  0  0  0  0  0  0  0  0
    4.1856    0.2888    0.2636 C   0  0  0  0  0  0  0  0  0  0  0  0
    4.9903   -0.3106    1.2462 C   0  0  0  0  0  0  0  0  0  0  0  0
    6.3589   -0.5047    1.0402 C   0  0  0  0  0  0  0  0  0  0  0  0
    6.9410   -0.1247   -0.1667 C   0  0  0  0  0  0  0  0  0  0  0  0
    6.1516    0.4370   -1.1697 C   0  0  0  0  0  0  0  0  0  0  0  0
    4.7816    0.6290   -0.9577 C   0  0  0  0  0  0  0  0  0  0  0  0
    6.7416    0.8070   -2.4200 C   0  0  0  0  0  0  0  0  0  0  0  0
    7.2356    1.1176   -3.4696 C   0  0  0  0  0  0  0  0  0  0  0  0
   -0.4577   -3.4828    4.3615 H   0  0  0  0  0  0  0  0  0  0  0  0
   -2.0050   -4.2250    4.8837 H   0  0  0  0  0  0  0  0  0  0  0  0
   -0.5759   -5.2370    4.5947 H   0  0  0  0  0  0  0  0  0  0  0  0
   -2.8260   -3.8284    1.5302 H   0  0  0  0  0  0  0  0  0  0  0  0
   -2.9322   -3.0436    3.0928 H   0  0  0  0  0  0  0  0  0  0  0  0
   -0.6596   -1.9761    2.6391 H   0  0  0  0  0  0  0  0  0  0  0  0
   -0.6531   -2.7795    1.0476 H   0  0  0  0  0  0  0  0  0  0  0  0
    0.5856   -0.8356    1.0358 H   0  0  0  0  0  0  0  0  0  0  0  0
   -2.3319    2.6772   -0.8453 H   0  0  0  0  0  0  0  0  0  0  0  0
   -4.2144    2.5845    0.1859 H   0  0  0  0  0  0  0  0  0  0  0  0
   -5.4553    1.4323    0.5543 H   0  0  0  0  0  0  0  0  0  0  0  0
   -4.0527    1.4883   -2.1608 H   0  0  0  0  0  0  0  0  0  0  0  0
   -5.3917    0.4490   -1.7338 H   0  0  0  0  0  0  0  0  0  0  0  0
   -7.7773    3.0757   -2.0135 H   0  0  0  0  0  0  0  0  0  0  0  0
   -7.3029    2.2427   -0.5227 H   0  0  0  0  0  0  0  0  0  0  0  0
   -7.5384    1.3172   -2.0418 H   0  0  0  0  0  0  0  0  0  0  0  0
    1.8343    4.1577   -1.6913 H   0  0  0  0  0  0  0  0  0  0  0  0
    2.5750    0.2989    1.4784 H   0  0  0  0  0  0  0  0  0  0  0  0
    4.5586   -0.6307    2.1910 H   0  0  0  0  0  0  0  0  0  0  0  0
    6.9679   -0.9575    1.8181 H   0  0  0  0  0  0  0  0  0  0  0  0
    8.0055   -0.2786   -0.3247 H   0  0  0  0  0  0  0  0  0  0  0  0
    4.1783    1.0434   -1.7612 H   0  0  0  0  0  0  0  0  0  0  0  0
    7.6708    1.3943   -4.4013 H   0  0  0  0  0  0  0  0  0  0  0  0
  1  2  1  0
  2  3  1  0
  3  4  1  0
  4  5  1  0
  5  6  1  0
  6  7  2  0
  7  8  1  0
  8  9  2  0
  9 10  1  0
 10 11  2  0
 11 12  1  0
 12 13  1  0
 13 14  1  0
 14 15  1  0
 15 16  1  0
  9 17  1  0
 17 18  2  0
 18 19  1  0
 19 20  2  0
 20 21  1  0
 21 22  1  0
 22 23  2  0
 23 24  1  0
 24 25  2  0
 25 26  1  0
 26 27  2  0
 26 28  1  0
 28 29  3  0
 11  6  1  0
 20  8  1  0
 27 22  1  0
  1 30  1  0
  1 31  1  0
  1 32  1  0
  3 33  1  0
  3 34  1  0
  4 35  1  0
  4 36  1  0
  7 37  1  0
 10 38  1  0
 13 39  1  0
 13 40  1  0
 14 41  1  0
 14 42  1  0
 16 43  1  0
 16 44  1  0
 16 45  1  0
 18 46  1  0
 21 47  1  0
 23 48  1  0
 24 49  1  0
 25 50  1  0
 27 51  1  0
 29 52  1  0
M  END
>  <energy_abs>  (271) 
60.77396495730272

>  <SMILES>  (271) 
COCCOc1cc2c(cc1OCCOC)ncnc2Nc3cccc(c3)C#C

>  <cluster_no>  (271) 
271

>  <fda_drugs_id>  (271) 
AAKJLRGGTJKAMG-UHFFFAOYSA-N

>  <initial_conformation_id>  (271) 
23

>  <minimize_method>  (271) 
MMFF

$$$$

     RDKit          3D

 52 54  0  0  0  0  0  0  0  0999 V2000
    0.5951   -4.9369    1.9968 C   0  0  0  0  0  0  0  0  0  0  0  0
    0.2264   -3.7239    2.6412 O   0  0  0  0  0  0  0  0  0  0  0  0
   -0.7599   -3.0129    1.8934 C   0  0  0  0  0  0  0  0  0  0  0  0
   -1.1300   -1.7355    2.6420 C   0  0  0  0  0  0  0  0  0  0  0  0
   -2.0463   -0.9435    1.8897 O   0  0  0  0  0  0  0  0  0  0  0  0
   -1.5625    0.0228    1.0467 C   0  0  0  0  0  0  0  0  0  0  0  0
   -0.2214    0.1714    0.6899 C   0  0  0  0  0  0  0  0  0  0  0  0
    0.1917    1.1946   -0.2021 C   0  0  0  0  0  0  0  0  0  0  0  0
   -0.7672    2.0542   -0.7491 C   0  0  0  0  0  0  0  0  0  0  0  0
   -2.0992    1.8941   -0.3897 C   0  0  0  0  0  0  0  0  0  0  0  0
   -2.5149    0.8971    0.4990 C   0  0  0  0  0  0  0  0  0  0  0  0
   -3.8139    0.6833    0.8844 O   0  0  0  0  0  0  0  0  0  0  0  0
   -4.8333    1.5812    0.4497 C   0  0  0  0  0  0  0  0  0  0  0  0
   -5.4082    1.1552   -0.9017 C   0  0  0  0  0  0  0  0  0  0  0  0
   -6.4386    2.0387   -1.3451 O   0  0  0  0  0  0  0  0  0  0  0  0
   -5.9333    3.1919   -2.0053 C   0  0  0  0  0  0  0  0  0  0  0  0
   -0.4594    3.0250   -1.6126 N   0  0  0  0  0  0  0  0  0  0  0  0
    0.8291    3.1435   -1.9490 C   0  0  0  0  0  0  0  0  0  0  0  0
    1.8336    2.3905   -1.4964 N   0  0  0  0  0  0  0  0  0  0  0  0
    1.5209    1.4233   -0.6160 C   0  0  0  0  0  0  0  0  0  0  0  0
    2.5550    0.6142   -0.0704 N   0  0  0  0  0  0  0  0  0  0  0  0
    3.8888    0.4674   -0.5158 C   0  0  0  0  0  0  0  0  0  0  0  0
    4.2619    0.6208   -1.8566 C   0  0  0  0  0  0  0  0  0  0  0  0
    5.5784    0.3976   -2.2712 C   0  0  0  0  0  0  0  0  0  0  0  0
    6.5407   -0.0106   -1.3506 C   0  0  0  0  0  0  0  0  0  0  0  0
    6.1820   -0.2069   -0.0182 C   0  0  0  0  0  0  0  0  0  0  0  0
    4.8628    0.0186    0.3913 C   0  0  0  0  0  0  0  0  0  0  0  0
    7.1600   -0.6461    0.9297 C   0  0  0  0  0  0  0  0  0  0  0  0
    7.9806   -1.0144    1.7253 C   0  0  0  0  0  0  0  0  0  0  0  0
    1.3487   -5.4373    2.6107 H   0  0  0  0  0  0  0  0  0  0  0  0
   -0.2717   -5.5976    1.8993 H   0  0  0  0  0  0  0  0  0  0  0  0
    1.0262   -4.7315    1.0122 H   0  0  0  0  0  0  0  0  0  0  0  0
   -1.6539   -3.6343    1.7608 H   0  0  0  0  0  0  0  0  0  0  0  0
   -0.3695   -2.7801    0.8965 H   0  0  0  0  0  0  0  0  0  0  0  0
   -0.2507   -1.1702    2.9741 H   0  0  0  0  0  0  0  0  0  0  0  0
   -1.6410   -2.0171    3.5710 H   0  0  0  0  0  0  0  0  0  0  0  0
    0.5289   -0.5146    1.0687 H   0  0  0  0  0  0  0  0  0  0  0  0
   -2.8084    2.5790   -0.8421 H   0  0  0  0  0  0  0  0  0  0  0  0
   -5.6383    1.5302    1.1932 H   0  0  0  0  0  0  0  0  0  0  0  0
   -4.5067    2.6264    0.4758 H   0  0  0  0  0  0  0  0  0  0  0  0
   -4.6316    1.0504   -1.6680 H   0  0  0  0  0  0  0  0  0  0  0  0
   -5.8556    0.1604   -0.7935 H   0  0  0  0  0  0  0  0  0  0  0  0
   -5.3569    2.9048   -2.8901 H   0  0  0  0  0  0  0  0  0  0  0  0
   -6.7822    3.8010   -2.3275 H   0  0  0  0  0  0  0  0  0  0  0  0
   -5.3148    3.7906   -1.3314 H   0  0  0  0  0  0  0  0  0  0  0  0
    1.0831    3.9268   -2.6550 H   0  0  0  0  0  0  0  0  0  0  0  0
    2.5095    0.6654    0.9425 H   0  0  0  0  0  0  0  0  0  0  0  0
    3.5276    0.9126   -2.6028 H   0  0  0  0  0  0  0  0  0  0  0  0
    5.8466    0.5364   -3.3152 H   0  0  0  0  0  0  0  0  0  0  0  0
    7.5621   -0.1838   -1.6799 H   0  0  0  0  0  0  0  0  0  0  0  0
    4.5983   -0.1559    1.4313 H   0  0  0  0  0  0  0  0  0  0  0  0
    8.7094   -1.3410    2.4300 H   0  0  0  0  0  0  0  0  0  0  0  0
  1  2  1  0
  2  3  1  0
  3  4  1  0
  4  5  1  0
  5  6  1  0
  6  7  2  0
  7  8  1  0
  8  9  2  0
  9 10  1  0
 10 11  2  0
 11 12  1  0
 12 13  1  0
 13 14  1  0
 14 15  1  0
 15 16  1  0
  9 17  1  0
 17 18  2  0
 18 19  1  0
 19 20  2  0
 20 21  1  0
 21 22  1  0
 22 23  2  0
 23 24  1  0
 24 25  2  0
 25 26  1  0
 26 27  2  0
 26 28  1  0
 28 29  3  0
 11  6  1  0
 20  8  1  0
 27 22  1  0
  1 30  1  0
  1 31  1  0
  1 32  1  0
  3 33  1  0
  3 34  1  0
  4 35  1  0
  4 36  1  0
  7 37  1  0
 10 38  1  0
 13 39  1  0
 13 40  1  0
 14 41  1  0
 14 42  1  0
 16 43  1  0
 16 44  1  0
 16 45  1  0
 18 46  1  0
 21 47  1  0
 23 48  1  0
 24 49  1  0
 25 50  1  0
 27 51  1  0
 29 52  1  0
M  END
>  <energy_abs>  (272) 
60.28599262915141

>  <SMILES>  (272) 
COCCOc1cc2c(cc1OCCOC)ncnc2Nc3cccc(c3)C#C

>  <cluster_no>  (272) 
272

>  <fda_drugs_id>  (272) 
AAKJLRGGTJKAMG-UHFFFAOYSA-N

>  <initial_conformation_id>  (272) 
22

>  <minimize_method>  (272) 
MMFF

$$$$

     RDKit          3D

 52 54  0  0  0  0  0  0  0  0999 V2000
   -3.2288   -4.9912    2.9498 C   0  0  0  0  0  0  0  0  0  0  0  0
   -2.3563   -4.0582    2.3276 O   0  0  0  0  0  0  0  0  0  0  0  0
   -1.8196   -3.1253    3.2713 C   0  0  0  0  0  0  0  0  0  0  0  0
   -0.9831   -2.0796    2.5331 C   0  0  0  0  0  0  0  0  0  0  0  0
   -1.8676   -1.1367    1.9215 O   0  0  0  0  0  0  0  0  0  0  0  0
   -1.3250   -0.1423    1.1502 C   0  0  0  0  0  0  0  0  0  0  0  0
    0.0431    0.0593    0.9609 C   0  0  0  0  0  0  0  0  0  0  0  0
    0.5208    1.1130    0.1393 C   0  0  0  0  0  0  0  0  0  0  0  0
   -0.3976    1.9496   -0.5050 C   0  0  0  0  0  0  0  0  0  0  0  0
   -1.7559    1.7430   -0.3018 C   0  0  0  0  0  0  0  0  0  0  0  0
   -2.2374    0.7166    0.5170 C   0  0  0  0  0  0  0  0  0  0  0  0
   -3.5634    0.4654    0.7617 O   0  0  0  0  0  0  0  0  0  0  0  0
   -4.5620    1.2367    0.0977 C   0  0  0  0  0  0  0  0  0  0  0  0
   -4.8543    0.6917   -1.3010 C   0  0  0  0  0  0  0  0  0  0  0  0
   -5.8574    1.4582   -1.9695 O   0  0  0  0  0  0  0  0  0  0  0  0
   -5.3311    2.6070   -2.6209 C   0  0  0  0  0  0  0  0  0  0  0  0
   -0.0256    2.9458   -1.3127 N   0  0  0  0  0  0  0  0  0  0  0  0
    1.2882    3.1144   -1.4935 C   0  0  0  0  0  0  0  0  0  0  0  0
    2.2590    2.3922   -0.9310 N   0  0  0  0  0  0  0  0  0  0  0  0
    1.8798    1.3986   -0.1081 C   0  0  0  0  0  0  0  0  0  0  0  0
    2.8736    0.6272    0.5554 N   0  0  0  0  0  0  0  0  0  0  0  0
    4.2558    0.5465    0.2665 C   0  0  0  0  0  0  0  0  0  0  0  0
    5.1424    0.1656    1.2868 C   0  0  0  0  0  0  0  0  0  0  0  0
    6.5081    0.0076    1.0359 C   0  0  0  0  0  0  0  0  0  0  0  0
    7.0060    0.2036   -0.2501 C   0  0  0  0  0  0  0  0  0  0  0  0
    6.1358    0.5450   -1.2850 C   0  0  0  0  0  0  0  0  0  0  0  0
    4.7691    0.7019   -1.0277 C   0  0  0  0  0  0  0  0  0  0  0  0
    6.6399    0.7242   -2.6124 C   0  0  0  0  0  0  0  0  0  0  0  0
    7.0620    0.8747   -3.7265 C   0  0  0  0  0  0  0  0  0  0  0  0
   -4.0875   -4.4766    3.3916 H   0  0  0  0  0  0  0  0  0  0  0  0
   -2.6959   -5.5622    3.7162 H   0  0  0  0  0  0  0  0  0  0  0  0
   -3.5926   -5.6845    2.1868 H   0  0  0  0  0  0  0  0  0  0  0  0
   -2.6394   -2.6425    3.8154 H   0  0  0  0  0  0  0  0  0  0  0  0
   -1.1830   -3.6740    3.9739 H   0  0  0  0  0  0  0  0  0  0  0  0
   -0.3714   -2.5723    1.7683 H   0  0  0  0  0  0  0  0  0  0  0  0
   -0.3506   -1.5566    3.2591 H   0  0  0  0  0  0  0  0  0  0  0  0
    0.7653   -0.6030    1.4260 H   0  0  0  0  0  0  0  0  0  0  0  0
   -2.4303    2.4196   -0.8155 H   0  0  0  0  0  0  0  0  0  0  0  0
   -5.4783    1.1476    0.6945 H   0  0  0  0  0  0  0  0  0  0  0  0
   -4.3357    2.3081    0.1113 H   0  0  0  0  0  0  0  0  0  0  0  0
   -5.2346   -0.3319   -1.2054 H   0  0  0  0  0  0  0  0  0  0  0  0
   -3.9498    0.6178   -1.9155 H   0  0  0  0  0  0  0  0  0  0  0  0
   -6.1556    3.1272   -3.1159 H   0  0  0  0  0  0  0  0  0  0  0  0
   -4.8734    3.2911   -1.9013 H   0  0  0  0  0  0  0  0  0  0  0  0
   -4.5996    2.3149   -3.3805 H   0  0  0  0  0  0  0  0  0  0  0  0
    1.5950    3.9160   -2.1566 H   0  0  0  0  0  0  0  0  0  0  0  0
    2.7091    0.6814    1.5551 H   0  0  0  0  0  0  0  0  0  0  0  0
    4.7779   -0.0084    2.2959 H   0  0  0  0  0  0  0  0  0  0  0  0
    7.1809   -0.2739    1.8416 H   0  0  0  0  0  0  0  0  0  0  0  0
    8.0686    0.0783   -0.4425 H   0  0  0  0  0  0  0  0  0  0  0  0
    4.1028    0.9417   -1.8523 H   0  0  0  0  0  0  0  0  0  0  0  0
    7.4334    1.0088   -4.7155 H   0  0  0  0  0  0  0  0  0  0  0  0
  1  2  1  0
  2  3  1  0
  3  4  1  0
  4  5  1  0
  5  6  1  0
  6  7  2  0
  7  8  1  0
  8  9  2  0
  9 10  1  0
 10 11  2  0
 11 12  1  0
 12 13  1  0
 13 14  1  0
 14 15  1  0
 15 16  1  0
  9 17  1  0
 17 18  2  0
 18 19  1  0
 19 20  2  0
 20 21  1  0
 21 22  1  0
 22 23  2  0
 23 24  1  0
 24 25  2  0
 25 26  1  0
 26 27  2  0
 26 28  1  0
 28 29  3  0
 11  6  1  0
 20  8  1  0
 27 22  1  0
  1 30  1  0
  1 31  1  0
  1 32  1  0
  3 33  1  0
  3 34  1  0
  4 35  1  0
  4 36  1  0
  7 37  1  0
 10 38  1  0
 13 39  1  0
 13 40  1  0
 14 41  1  0
 14 42  1  0
 16 43  1  0
 16 44  1  0
 16 45  1  0
 18 46  1  0
 21 47  1  0
 23 48  1  0
 24 49  1  0
 25 50  1  0
 27 51  1  0
 29 52  1  0
M  END
>  <energy_abs>  (273) 
61.29484637339443

>  <SMILES>  (273) 
COCCOc1cc2c(cc1OCCOC)ncnc2Nc3cccc(c3)C#C

>  <cluster_no>  (273) 
273

>  <fda_drugs_id>  (273) 
AAKJLRGGTJKAMG-UHFFFAOYSA-N

>  <initial_conformation_id>  (273) 
21

>  <minimize_method>  (273) 
MMFF

$$$$

     RDKit          3D

 52 54  0  0  0  0  0  0  0  0999 V2000
   -0.3566   -4.7810    2.8092 C   0  0  0  0  0  0  0  0  0  0  0  0
    0.2229   -3.4970    2.6165 O   0  0  0  0  0  0  0  0  0  0  0  0
   -0.7471   -2.4735    2.3918 C   0  0  0  0  0  0  0  0  0  0  0  0
   -1.2801   -2.4871    0.9583 C   0  0  0  0  0  0  0  0  0  0  0  0
   -2.0970   -1.3476    0.6988 O   0  0  0  0  0  0  0  0  0  0  0  0
   -1.5146   -0.1861    0.2623 C   0  0  0  0  0  0  0  0  0  0  0  0
   -0.1410    0.0192    0.1240 C   0  0  0  0  0  0  0  0  0  0  0  0
    0.3746    1.2628   -0.3263 C   0  0  0  0  0  0  0  0  0  0  0  0
   -0.5126    2.2944   -0.6537 C   0  0  0  0  0  0  0  0  0  0  0  0
   -1.8772    2.0806   -0.5077 C   0  0  0  0  0  0  0  0  0  0  0  0
   -2.3932    0.8621   -0.0529 C   0  0  0  0  0  0  0  0  0  0  0  0
   -3.7294    0.5969    0.1144 O   0  0  0  0  0  0  0  0  0  0  0  0
   -4.6630    1.6196   -0.2271 C   0  0  0  0  0  0  0  0  0  0  0  0
   -6.0732    1.0923    0.0367 C   0  0  0  0  0  0  0  0  0  0  0  0
   -7.0747    2.0731   -0.2351 O   0  0  0  0  0  0  0  0  0  0  0  0
   -7.4163    2.1507   -1.6127 C   0  0  0  0  0  0  0  0  0  0  0  0
   -0.1039    3.4837   -1.1024 N   0  0  0  0  0  0  0  0  0  0  0  0
    1.2149    3.6547   -1.2372 C   0  0  0  0  0  0  0  0  0  0  0  0
    2.1587    2.7542   -0.9556 N   0  0  0  0  0  0  0  0  0  0  0  0
    1.7438    1.5627   -0.4899 C   0  0  0  0  0  0  0  0  0  0  0  0
    2.7064    0.5778   -0.1361 N   0  0  0  0  0  0  0  0  0  0  0  0
    4.0844    0.5367   -0.4499 C   0  0  0  0  0  0  0  0  0  0  0  0
    4.6164    1.1166   -1.6080 C   0  0  0  0  0  0  0  0  0  0  0  0
    5.9740    0.9948   -1.9200 C   0  0  0  0  0  0  0  0  0  0  0  0
    6.8189    0.2646   -1.0874 C   0  0  0  0  0  0  0  0  0  0  0  0
    6.3023   -0.3534    0.0500 C   0  0  0  0  0  0  0  0  0  0  0  0
    4.9427   -0.2277    0.3576 C   0  0  0  0  0  0  0  0  0  0  0  0
    7.1598   -1.1223    0.8994 C   0  0  0  0  0  0  0  0  0  0  0  0
    7.8790   -1.7675    1.6125 C   0  0  0  0  0  0  0  0  0  0  0  0
   -0.8656   -5.1193    1.9027 H   0  0  0  0  0  0  0  0  0  0  0  0
   -1.0536   -4.7669    3.6525 H   0  0  0  0  0  0  0  0  0  0  0  0
    0.4469   -5.4874    3.0353 H   0  0  0  0  0  0  0  0  0  0  0  0
   -0.2519   -1.5189    2.5971 H   0  0  0  0  0  0  0  0  0  0  0  0
   -1.5669   -2.5452    3.1173 H   0  0  0  0  0  0  0  0  0  0  0  0
   -1.9274   -3.3627    0.8327 H   0  0  0  0  0  0  0  0  0  0  0  0
   -0.4878   -2.6215    0.2126 H   0  0  0  0  0  0  0  0  0  0  0  0
    0.5619   -0.7752    0.3509 H   0  0  0  0  0  0  0  0  0  0  0  0
   -2.5317    2.9082   -0.7638 H   0  0  0  0  0  0  0  0  0  0  0  0
   -4.5597    1.8872   -1.2846 H   0  0  0  0  0  0  0  0  0  0  0  0
   -4.4985    2.5159    0.3835 H   0  0  0  0  0  0  0  0  0  0  0  0
   -6.2648    0.1687   -0.5234 H   0  0  0  0  0  0  0  0  0  0  0  0
   -6.1582    0.8254    1.0965 H   0  0  0  0  0  0  0  0  0  0  0  0
   -8.2104    2.8937   -1.7262 H   0  0  0  0  0  0  0  0  0  0  0  0
   -7.7903    1.1868   -1.9708 H   0  0  0  0  0  0  0  0  0  0  0  0
   -6.5593    2.4694   -2.2119 H   0  0  0  0  0  0  0  0  0  0  0  0
    1.5505    4.6171   -1.6082 H   0  0  0  0  0  0  0  0  0  0  0  0
    2.5395    0.2853    0.8216 H   0  0  0  0  0  0  0  0  0  0  0  0
    3.9768    1.6696   -2.2907 H   0  0  0  0  0  0  0  0  0  0  0  0
    6.3658    1.4651   -2.8179 H   0  0  0  0  0  0  0  0  0  0  0  0
    7.8729    0.1725   -1.3366 H   0  0  0  0  0  0  0  0  0  0  0  0
    4.5545   -0.7311    1.2398 H   0  0  0  0  0  0  0  0  0  0  0  0
    8.5174   -2.3395    2.2445 H   0  0  0  0  0  0  0  0  0  0  0  0
  1  2  1  0
  2  3  1  0
  3  4  1  0
  4  5  1  0
  5  6  1  0
  6  7  2  0
  7  8  1  0
  8  9  2  0
  9 10  1  0
 10 11  2  0
 11 12  1  0
 12 13  1  0
 13 14  1  0
 14 15  1  0
 15 16  1  0
  9 17  1  0
 17 18  2  0
 18 19  1  0
 19 20  2  0
 20 21  1  0
 21 22  1  0
 22 23  2  0
 23 24  1  0
 24 25  2  0
 25 26  1  0
 26 27  2  0
 26 28  1  0
 28 29  3  0
 11  6  1  0
 20  8  1  0
 27 22  1  0
  1 30  1  0
  1 31  1  0
  1 32  1  0
  3 33  1  0
  3 34  1  0
  4 35  1  0
  4 36  1  0
  7 37  1  0
 10 38  1  0
 13 39  1  0
 13 40  1  0
 14 41  1  0
 14 42  1  0
 16 43  1  0
 16 44  1  0
 16 45  1  0
 18 46  1  0
 21 47  1  0
 23 48  1  0
 24 49  1  0
 25 50  1  0
 27 51  1  0
 29 52  1  0
M  END
>  <energy_abs>  (274) 
59.8671951862777

>  <SMILES>  (274) 
COCCOc1cc2c(cc1OCCOC)ncnc2Nc3cccc(c3)C#C

>  <cluster_no>  (274) 
274

>  <fda_drugs_id>  (274) 
AAKJLRGGTJKAMG-UHFFFAOYSA-N

>  <initial_conformation_id>  (274) 
20

>  <minimize_method>  (274) 
MMFF

$$$$

     RDKit          3D

 52 54  0  0  0  0  0  0  0  0999 V2000
   -2.9139   -4.7712    3.0546 C   0  0  0  0  0  0  0  0  0  0  0  0
   -2.1291   -3.6591    2.6469 O   0  0  0  0  0  0  0  0  0  0  0  0
   -1.6981   -3.7819    1.2874 C   0  0  0  0  0  0  0  0  0  0  0  0
   -0.9107   -2.5306    0.8911 C   0  0  0  0  0  0  0  0  0  0  0  0
   -1.8295   -1.4639    0.6468 O   0  0  0  0  0  0  0  0  0  0  0  0
   -1.3140   -0.2209    0.4149 C   0  0  0  0  0  0  0  0  0  0  0  0
    0.0381    0.0602    0.2143 C   0  0  0  0  0  0  0  0  0  0  0  0
    0.4949    1.3914    0.0113 C   0  0  0  0  0  0  0  0  0  0  0  0
   -0.4243    2.4491    0.0438 C   0  0  0  0  0  0  0  0  0  0  0  0
   -1.7665    2.1574    0.2300 C   0  0  0  0  0  0  0  0  0  0  0  0
   -2.2168    0.8438    0.3846 C   0  0  0  0  0  0  0  0  0  0  0  0
   -3.5672    0.6919    0.5772 O   0  0  0  0  0  0  0  0  0  0  0  0
   -4.1784   -0.0513   -0.4899 C   0  0  0  0  0  0  0  0  0  0  0  0
   -5.6179    0.4396   -0.6487 C   0  0  0  0  0  0  0  0  0  0  0  0
   -5.6140    1.7353   -1.2593 O   0  0  0  0  0  0  0  0  0  0  0  0
   -6.9231    2.2770   -1.3485 C   0  0  0  0  0  0  0  0  0  0  0  0
   -0.0613    3.7271   -0.0999 N   0  0  0  0  0  0  0  0  0  0  0  0
    1.2411    3.9660   -0.2766 C   0  0  0  0  0  0  0  0  0  0  0  0
    2.2096    3.0478   -0.3440 N   0  0  0  0  0  0  0  0  0  0  0  0
    1.8382    1.7614   -0.2130 C   0  0  0  0  0  0  0  0  0  0  0  0
    2.8163    0.7322   -0.3353 N   0  0  0  0  0  0  0  0  0  0  0  0
    4.2244    0.8463   -0.3191 C   0  0  0  0  0  0  0  0  0  0  0  0
    4.8993    1.8591    0.3707 C   0  0  0  0  0  0  0  0  0  0  0  0
    6.2960    1.8935    0.4183 C   0  0  0  0  0  0  0  0  0  0  0  0
    7.0424    0.8958   -0.2041 C   0  0  0  0  0  0  0  0  0  0  0  0
    6.3895   -0.1425   -0.8628 C   0  0  0  0  0  0  0  0  0  0  0  0
    4.9911   -0.1720   -0.9048 C   0  0  0  0  0  0  0  0  0  0  0  0
    7.1418   -1.1784   -1.5032 C   0  0  0  0  0  0  0  0  0  0  0  0
    7.7608   -2.0486   -2.0534 C   0  0  0  0  0  0  0  0  0  0  0  0
   -3.1753   -4.6383    4.1076 H   0  0  0  0  0  0  0  0  0  0  0  0
   -3.8359   -4.8207    2.4674 H   0  0  0  0  0  0  0  0  0  0  0  0
   -2.3481   -5.7020    2.9524 H   0  0  0  0  0  0  0  0  0  0  0  0
   -1.0510   -4.6661    1.2061 H   0  0  0  0  0  0  0  0  0  0  0  0
   -2.5720   -3.9040    0.6354 H   0  0  0  0  0  0  0  0  0  0  0  0
   -0.2254   -2.2588    1.6987 H   0  0  0  0  0  0  0  0  0  0  0  0
   -0.3604   -2.7381   -0.0302 H   0  0  0  0  0  0  0  0  0  0  0  0
    0.7712   -0.7344    0.2380 H   0  0  0  0  0  0  0  0  0  0  0  0
   -2.4917    2.9709    0.2491 H   0  0  0  0  0  0  0  0  0  0  0  0
   -3.6364    0.0839   -1.4363 H   0  0  0  0  0  0  0  0  0  0  0  0
   -4.1906   -1.1086   -0.2180 H   0  0  0  0  0  0  0  0  0  0  0  0
   -6.1792   -0.2482   -1.2923 H   0  0  0  0  0  0  0  0  0  0  0  0
   -6.1035    0.5039    0.3322 H   0  0  0  0  0  0  0  0  0  0  0  0
   -6.8504    3.2810   -1.7797 H   0  0  0  0  0  0  0  0  0  0  0  0
   -7.5522    1.6577   -1.9985 H   0  0  0  0  0  0  0  0  0  0  0  0
   -7.3727    2.3561   -0.3535 H   0  0  0  0  0  0  0  0  0  0  0  0
    1.5391    5.0040   -0.3796 H   0  0  0  0  0  0  0  0  0  0  0  0
    2.5124    0.0889   -1.0598 H   0  0  0  0  0  0  0  0  0  0  0  0
    4.3438    2.6391    0.8846 H   0  0  0  0  0  0  0  0  0  0  0  0
    6.7958    2.7003    0.9462 H   0  0  0  0  0  0  0  0  0  0  0  0
    8.1274    0.9301   -0.1657 H   0  0  0  0  0  0  0  0  0  0  0  0
    4.5003   -0.9996   -1.4071 H   0  0  0  0  0  0  0  0  0  0  0  0
    8.3093   -2.8185   -2.5433 H   0  0  0  0  0  0  0  0  0  0  0  0
  1  2  1  0
  2  3  1  0
  3  4  1  0
  4  5  1  0
  5  6  1  0
  6  7  2  0
  7  8  1  0
  8  9  2  0
  9 10  1  0
 10 11  2  0
 11 12  1  0
 12 13  1  0
 13 14  1  0
 14 15  1  0
 15 16  1  0
  9 17  1  0
 17 18  2  0
 18 19  1  0
 19 20  2  0
 20 21  1  0
 21 22  1  0
 22 23  2  0
 23 24  1  0
 24 25  2  0
 25 26  1  0
 26 27  2  0
 26 28  1  0
 28 29  3  0
 11  6  1  0
 20  8  1  0
 27 22  1  0
  1 30  1  0
  1 31  1  0
  1 32  1  0
  3 33  1  0
  3 34  1  0
  4 35  1  0
  4 36  1  0
  7 37  1  0
 10 38  1  0
 13 39  1  0
 13 40  1  0
 14 41  1  0
 14 42  1  0
 16 43  1  0
 16 44  1  0
 16 45  1  0
 18 46  1  0
 21 47  1  0
 23 48  1  0
 24 49  1  0
 25 50  1  0
 27 51  1  0
 29 52  1  0
M  END
>  <energy_abs>  (275) 
59.369018400565935

>  <SMILES>  (275) 
COCCOc1cc2c(cc1OCCOC)ncnc2Nc3cccc(c3)C#C

>  <cluster_no>  (275) 
275

>  <fda_drugs_id>  (275) 
AAKJLRGGTJKAMG-UHFFFAOYSA-N

>  <initial_conformation_id>  (275) 
18

>  <minimize_method>  (275) 
MMFF

$$$$

     RDKit          3D

 52 54  0  0  0  0  0  0  0  0999 V2000
   -0.5378   -5.3538    1.8926 C   0  0  0  0  0  0  0  0  0  0  0  0
   -1.2822   -5.0731    0.7135 O   0  0  0  0  0  0  0  0  0  0  0  0
   -2.0320   -3.8614    0.7970 C   0  0  0  0  0  0  0  0  0  0  0  0
   -1.1708   -2.6233    0.5471 C   0  0  0  0  0  0  0  0  0  0  0  0
   -2.0142   -1.4725    0.5977 O   0  0  0  0  0  0  0  0  0  0  0  0
   -1.4817   -0.2899    0.1669 C   0  0  0  0  0  0  0  0  0  0  0  0
   -0.1191   -0.0107    0.0639 C   0  0  0  0  0  0  0  0  0  0  0  0
    0.3393    1.2650   -0.3750 C   0  0  0  0  0  0  0  0  0  0  0  0
   -0.5947    2.2500   -0.7324 C   0  0  0  0  0  0  0  0  0  0  0  0
   -1.9450    1.9590   -0.6279 C   0  0  0  0  0  0  0  0  0  0  0  0
   -2.3859    0.7187   -0.1646 C   0  0  0  0  0  0  0  0  0  0  0  0
   -3.7373    0.4929   -0.1261 O   0  0  0  0  0  0  0  0  0  0  0  0
   -4.2689    0.8211    1.1704 C   0  0  0  0  0  0  0  0  0  0  0  0
   -5.6440    1.4617    0.9798 C   0  0  0  0  0  0  0  0  0  0  0  0
   -5.4787    2.7988    0.4872 O   0  0  0  0  0  0  0  0  0  0  0  0
   -6.7279    3.4063    0.1838 C   0  0  0  0  0  0  0  0  0  0  0  0
   -0.2396    3.4610   -1.1679 N   0  0  0  0  0  0  0  0  0  0  0  0
    1.0700    3.7068   -1.2590 C   0  0  0  0  0  0  0  0  0  0  0  0
    2.0543    2.8597   -0.9481 N   0  0  0  0  0  0  0  0  0  0  0  0
    1.6938    1.6443   -0.4982 C   0  0  0  0  0  0  0  0  0  0  0  0
    2.7021    0.7140   -0.1259 N   0  0  0  0  0  0  0  0  0  0  0  0
    4.0919    0.7583   -0.3855 C   0  0  0  0  0  0  0  0  0  0  0  0
    4.6386    1.4149   -1.4958 C   0  0  0  0  0  0  0  0  0  0  0  0
    6.0122    1.3754   -1.7557 C   0  0  0  0  0  0  0  0  0  0  0  0
    6.8612    0.6507   -0.9212 C   0  0  0  0  0  0  0  0  0  0  0  0
    6.3335   -0.0442    0.1664 C   0  0  0  0  0  0  0  0  0  0  0  0
    4.9583    0.0013    0.4235 C   0  0  0  0  0  0  0  0  0  0  0  0
    7.1964   -0.8140    1.0113 C   0  0  0  0  0  0  0  0  0  0  0  0
    7.9271   -1.4626    1.7114 C   0  0  0  0  0  0  0  0  0  0  0  0
   -0.0508   -6.3241    1.7668 H   0  0  0  0  0  0  0  0  0  0  0  0
   -1.1984   -5.4086    2.7636 H   0  0  0  0  0  0  0  0  0  0  0  0
    0.2373   -4.6003    2.0530 H   0  0  0  0  0  0  0  0  0  0  0  0
   -2.8119   -3.9094    0.0285 H   0  0  0  0  0  0  0  0  0  0  0  0
   -2.5582   -3.7924    1.7570 H   0  0  0  0  0  0  0  0  0  0  0  0
   -0.3971   -2.5479    1.3190 H   0  0  0  0  0  0  0  0  0  0  0  0
   -0.6842   -2.7168   -0.4324 H   0  0  0  0  0  0  0  0  0  0  0  0
    0.6148   -0.7720    0.3119 H   0  0  0  0  0  0  0  0  0  0  0  0
   -2.6786    2.7114   -0.9089 H   0  0  0  0  0  0  0  0  0  0  0  0
   -3.6163    1.5072    1.7269 H   0  0  0  0  0  0  0  0  0  0  0  0
   -4.3735   -0.1122    1.7358 H   0  0  0  0  0  0  0  0  0  0  0  0
   -6.2357    0.8817    0.2613 H   0  0  0  0  0  0  0  0  0  0  0  0
   -6.1705    1.5070    1.9415 H   0  0  0  0  0  0  0  0  0  0  0  0
   -7.2385    2.8547   -0.6118 H   0  0  0  0  0  0  0  0  0  0  0  0
   -6.5417    4.4270   -0.1649 H   0  0  0  0  0  0  0  0  0  0  0  0
   -7.3596    3.4519    1.0786 H   0  0  0  0  0  0  0  0  0  0  0  0
    1.3613    4.6878   -1.6178 H   0  0  0  0  0  0  0  0  0  0  0  0
    2.5155    0.3809    0.8152 H   0  0  0  0  0  0  0  0  0  0  0  0
    3.9998    1.9647   -2.1826 H   0  0  0  0  0  0  0  0  0  0  0  0
    6.4138    1.9041   -2.6168 H   0  0  0  0  0  0  0  0  0  0  0  0
    7.9274    0.6208   -1.1314 H   0  0  0  0  0  0  0  0  0  0  0  0
    4.5632   -0.5618    1.2665 H   0  0  0  0  0  0  0  0  0  0  0  0
    8.5793   -2.0381    2.3280 H   0  0  0  0  0  0  0  0  0  0  0  0
  1  2  1  0
  2  3  1  0
  3  4  1  0
  4  5  1  0
  5  6  1  0
  6  7  2  0
  7  8  1  0
  8  9  2  0
  9 10  1  0
 10 11  2  0
 11 12  1  0
 12 13  1  0
 13 14  1  0
 14 15  1  0
 15 16  1  0
  9 17  1  0
 17 18  2  0
 18 19  1  0
 19 20  2  0
 20 21  1  0
 21 22  1  0
 22 23  2  0
 23 24  1  0
 24 25  2  0
 25 26  1  0
 26 27  2  0
 26 28  1  0
 28 29  3  0
 11  6  1  0
 20  8  1  0
 27 22  1  0
  1 30  1  0
  1 31  1  0
  1 32  1  0
  3 33  1  0
  3 34  1  0
  4 35  1  0
  4 36  1  0
  7 37  1  0
 10 38  1  0
 13 39  1  0
 13 40  1  0
 14 41  1  0
 14 42  1  0
 16 43  1  0
 16 44  1  0
 16 45  1  0
 18 46  1  0
 21 47  1  0
 23 48  1  0
 24 49  1  0
 25 50  1  0
 27 51  1  0
 29 52  1  0
M  END
>  <energy_abs>  (276) 
59.50401748977104

>  <SMILES>  (276) 
COCCOc1cc2c(cc1OCCOC)ncnc2Nc3cccc(c3)C#C

>  <cluster_no>  (276) 
276

>  <fda_drugs_id>  (276) 
AAKJLRGGTJKAMG-UHFFFAOYSA-N

>  <initial_conformation_id>  (276) 
17

>  <minimize_method>  (276) 
MMFF

$$$$

     RDKit          3D

 52 54  0  0  0  0  0  0  0  0999 V2000
   -4.3390   -4.4601    2.3136 C   0  0  0  0  0  0  0  0  0  0  0  0
   -4.0516   -4.5063    0.9218 O   0  0  0  0  0  0  0  0  0  0  0  0
   -2.7906   -3.9238    0.5863 C   0  0  0  0  0  0  0  0  0  0  0  0
   -2.8133   -2.3926    0.5953 C   0  0  0  0  0  0  0  0  0  0  0  0
   -1.5376   -1.9286    0.1502 O   0  0  0  0  0  0  0  0  0  0  0  0
   -1.1958   -0.6229    0.3863 C   0  0  0  0  0  0  0  0  0  0  0  0
    0.1845   -0.4083    0.2861 C   0  0  0  0  0  0  0  0  0  0  0  0
    0.7580    0.8675    0.5003 C   0  0  0  0  0  0  0  0  0  0  0  0
   -0.0841    1.9423    0.7956 C   0  0  0  0  0  0  0  0  0  0  0  0
   -1.4553    1.7218    0.8754 C   0  0  0  0  0  0  0  0  0  0  0  0
   -2.0366    0.4618    0.6669 C   0  0  0  0  0  0  0  0  0  0  0  0
   -3.3836    0.2349    0.7032 O   0  0  0  0  0  0  0  0  0  0  0  0
   -4.3057    1.3208    0.8451 C   0  0  0  0  0  0  0  0  0  0  0  0
   -4.5473    2.0457   -0.4814 C   0  0  0  0  0  0  0  0  0  0  0  0
   -5.3150    1.2040   -1.3485 O   0  0  0  0  0  0  0  0  0  0  0  0
   -5.5057    1.8005   -2.6254 C   0  0  0  0  0  0  0  0  0  0  0  0
    0.3705    3.1814    1.0011 N   0  0  0  0  0  0  0  0  0  0  0  0
    1.6919    3.3604    0.9004 C   0  0  0  0  0  0  0  0  0  0  0  0
    2.5958    2.4170    0.6269 N   0  0  0  0  0  0  0  0  0  0  0  0
    2.1349    1.1676    0.4359 C   0  0  0  0  0  0  0  0  0  0  0  0
    3.0554    0.1167    0.1736 N   0  0  0  0  0  0  0  0  0  0  0  0
    4.4235    0.2106   -0.1709 C   0  0  0  0  0  0  0  0  0  0  0  0
    5.2683   -0.8774    0.1020 C   0  0  0  0  0  0  0  0  0  0  0  0
    6.6150   -0.8607   -0.2727 C   0  0  0  0  0  0  0  0  0  0  0  0
    7.1343    0.2416   -0.9489 C   0  0  0  0  0  0  0  0  0  0  0  0
    6.3030    1.3163   -1.2621 C   0  0  0  0  0  0  0  0  0  0  0  0
    4.9539    1.2903   -0.8895 C   0  0  0  0  0  0  0  0  0  0  0  0
    6.8269    2.4431   -1.9721 C   0  0  0  0  0  0  0  0  0  0  0  0
    7.2644    3.3909   -2.5652 C   0  0  0  0  0  0  0  0  0  0  0  0
   -5.2850   -4.9818    2.4849 H   0  0  0  0  0  0  0  0  0  0  0  0
   -3.5540   -4.9650    2.8860 H   0  0  0  0  0  0  0  0  0  0  0  0
   -4.4519   -3.4281    2.6562 H   0  0  0  0  0  0  0  0  0  0  0  0
   -2.5339   -4.2693   -0.4234 H   0  0  0  0  0  0  0  0  0  0  0  0
   -2.0006   -4.3084    1.2449 H   0  0  0  0  0  0  0  0  0  0  0  0
   -3.0211   -2.0423    1.6126 H   0  0  0  0  0  0  0  0  0  0  0  0
   -3.6041   -2.0497   -0.0829 H   0  0  0  0  0  0  0  0  0  0  0  0
    0.8169   -1.2548    0.0240 H   0  0  0  0  0  0  0  0  0  0  0  0
   -2.0627    2.5926    1.1017 H   0  0  0  0  0  0  0  0  0  0  0  0
   -5.2490    0.8686    1.1753 H   0  0  0  0  0  0  0  0  0  0  0  0
   -3.9969    2.0031    1.6437 H   0  0  0  0  0  0  0  0  0  0  0  0
   -5.1159    2.9636   -0.2950 H   0  0  0  0  0  0  0  0  0  0  0  0
   -3.6017    2.2973   -0.9719 H   0  0  0  0  0  0  0  0  0  0  0  0
   -6.1266    1.1327   -3.2304 H   0  0  0  0  0  0  0  0  0  0  0  0
   -4.5450    1.9343   -3.1318 H   0  0  0  0  0  0  0  0  0  0  0  0
   -6.0192    2.7626   -2.5275 H   0  0  0  0  0  0  0  0  0  0  0  0
    2.0660    4.3663    1.0601 H   0  0  0  0  0  0  0  0  0  0  0  0
    2.8894   -0.6373    0.8318 H   0  0  0  0  0  0  0  0  0  0  0  0
    4.8853   -1.7546    0.6185 H   0  0  0  0  0  0  0  0  0  0  0  0
    7.2540   -1.7093   -0.0446 H   0  0  0  0  0  0  0  0  0  0  0  0
    8.1824    0.2533   -1.2373 H   0  0  0  0  0  0  0  0  0  0  0  0
    4.3143    2.1245   -1.1705 H   0  0  0  0  0  0  0  0  0  0  0  0
    7.6522    4.2307   -3.0934 H   0  0  0  0  0  0  0  0  0  0  0  0
  1  2  1  0
  2  3  1  0
  3  4  1  0
  4  5  1  0
  5  6  1  0
  6  7  2  0
  7  8  1  0
  8  9  2  0
  9 10  1  0
 10 11  2  0
 11 12  1  0
 12 13  1  0
 13 14  1  0
 14 15  1  0
 15 16  1  0
  9 17  1  0
 17 18  2  0
 18 19  1  0
 19 20  2  0
 20 21  1  0
 21 22  1  0
 22 23  2  0
 23 24  1  0
 24 25  2  0
 25 26  1  0
 26 27  2  0
 26 28  1  0
 28 29  3  0
 11  6  1  0
 20  8  1  0
 27 22  1  0
  1 30  1  0
  1 31  1  0
  1 32  1  0
  3 33  1  0
  3 34  1  0
  4 35  1  0
  4 36  1  0
  7 37  1  0
 10 38  1  0
 13 39  1  0
 13 40  1  0
 14 41  1  0
 14 42  1  0
 16 43  1  0
 16 44  1  0
 16 45  1  0
 18 46  1  0
 21 47  1  0
 23 48  1  0
 24 49  1  0
 25 50  1  0
 27 51  1  0
 29 52  1  0
M  END
>  <energy_abs>  (277) 
60.62106664589329

>  <SMILES>  (277) 
COCCOc1cc2c(cc1OCCOC)ncnc2Nc3cccc(c3)C#C

>  <cluster_no>  (277) 
277

>  <fda_drugs_id>  (277) 
AAKJLRGGTJKAMG-UHFFFAOYSA-N

>  <initial_conformation_id>  (277) 
16

>  <minimize_method>  (277) 
MMFF

$$$$

     RDKit          3D

 52 54  0  0  0  0  0  0  0  0999 V2000
   -1.2239   -5.2616    1.8351 C   0  0  0  0  0  0  0  0  0  0  0  0
   -0.5483   -4.3840    0.9431 O   0  0  0  0  0  0  0  0  0  0  0  0
   -1.4022   -3.3797    0.3941 C   0  0  0  0  0  0  0  0  0  0  0  0
   -1.6789   -2.2476    1.3841 C   0  0  0  0  0  0  0  0  0  0  0  0
   -2.3597   -1.1680    0.7493 O   0  0  0  0  0  0  0  0  0  0  0  0
   -1.6319   -0.1492    0.1926 C   0  0  0  0  0  0  0  0  0  0  0  0
   -0.2476   -0.1606    0.0151 C   0  0  0  0  0  0  0  0  0  0  0  0
    0.4245    0.9337   -0.5891 C   0  0  0  0  0  0  0  0  0  0  0  0
   -0.3142    2.0495   -0.9994 C   0  0  0  0  0  0  0  0  0  0  0  0
   -1.6918    2.0471   -0.8230 C   0  0  0  0  0  0  0  0  0  0  0  0
   -2.3638    0.9679   -0.2385 C   0  0  0  0  0  0  0  0  0  0  0  0
   -3.7213    0.9094   -0.0452 O   0  0  0  0  0  0  0  0  0  0  0  0
   -4.5014    2.0512   -0.4041 C   0  0  0  0  0  0  0  0  0  0  0  0
   -5.9726    1.7750   -0.0748 C   0  0  0  0  0  0  0  0  0  0  0  0
   -6.2344    1.6320    1.3247 O   0  0  0  0  0  0  0  0  0  0  0  0
   -6.1786    2.8533    2.0462 C   0  0  0  0  0  0  0  0  0  0  0  0
    0.2488    3.1233   -1.5588 N   0  0  0  0  0  0  0  0  0  0  0  0
    1.5769    3.0959   -1.7089 C   0  0  0  0  0  0  0  0  0  0  0  0
    2.3876    2.0933   -1.3654 N   0  0  0  0  0  0  0  0  0  0  0  0
    1.8153    1.0082   -0.8147 C   0  0  0  0  0  0  0  0  0  0  0  0
    2.6266   -0.1044   -0.4607 N   0  0  0  0  0  0  0  0  0  0  0  0
    4.0341   -0.1684   -0.3418 C   0  0  0  0  0  0  0  0  0  0  0  0
    4.6670   -1.4173   -0.4533 C   0  0  0  0  0  0  0  0  0  0  0  0
    6.0476   -1.5469   -0.2793 C   0  0  0  0  0  0  0  0  0  0  0  0
    6.8163   -0.4291    0.0356 C   0  0  0  0  0  0  0  0  0  0  0  0
    6.2013    0.8132    0.1887 C   0  0  0  0  0  0  0  0  0  0  0  0
    4.8181    0.9367    0.0134 C   0  0  0  0  0  0  0  0  0  0  0  0
    6.9844    1.9597    0.5362 C   0  0  0  0  0  0  0  0  0  0  0  0
    7.6408    2.9220    0.8281 C   0  0  0  0  0  0  0  0  0  0  0  0
   -0.5181   -6.0337    2.1535 H   0  0  0  0  0  0  0  0  0  0  0  0
   -1.5688   -4.7254    2.7232 H   0  0  0  0  0  0  0  0  0  0  0  0
   -2.0666   -5.7473    1.3340 H   0  0  0  0  0  0  0  0  0  0  0  0
   -2.3381   -3.8203    0.0289 H   0  0  0  0  0  0  0  0  0  0  0  0
   -0.8953   -2.9838   -0.4920 H   0  0  0  0  0  0  0  0  0  0  0  0
   -2.3527   -2.6191    2.1648 H   0  0  0  0  0  0  0  0  0  0  0  0
   -0.7795   -1.9282    1.9239 H   0  0  0  0  0  0  0  0  0  0  0  0
    0.3431   -1.0092    0.3434 H   0  0  0  0  0  0  0  0  0  0  0  0
   -2.2292    2.9269   -1.1623 H   0  0  0  0  0  0  0  0  0  0  0  0
   -4.4176    2.2249   -1.4833 H   0  0  0  0  0  0  0  0  0  0  0  0
   -4.1478    2.9304    0.1437 H   0  0  0  0  0  0  0  0  0  0  0  0
   -6.6138    2.5628   -0.4862 H   0  0  0  0  0  0  0  0  0  0  0  0
   -6.2704    0.8283   -0.5385 H   0  0  0  0  0  0  0  0  0  0  0  0
   -6.5199    2.6615    3.0672 H   0  0  0  0  0  0  0  0  0  0  0  0
   -5.1542    3.2305    2.0973 H   0  0  0  0  0  0  0  0  0  0  0  0
   -6.8373    3.6022    1.5961 H   0  0  0  0  0  0  0  0  0  0  0  0
    2.0399    3.9696   -2.1547 H   0  0  0  0  0  0  0  0  0  0  0  0
    2.2573   -0.9365   -0.9094 H   0  0  0  0  0  0  0  0  0  0  0  0
    4.0879   -2.3089   -0.6812 H   0  0  0  0  0  0  0  0  0  0  0  0
    6.5199   -2.5202   -0.3827 H   0  0  0  0  0  0  0  0  0  0  0  0
    7.8896   -0.5335    0.1724 H   0  0  0  0  0  0  0  0  0  0  0  0
    4.3543    1.9078    0.1646 H   0  0  0  0  0  0  0  0  0  0  0  0
    8.2207    3.7768    1.0868 H   0  0  0  0  0  0  0  0  0  0  0  0
  1  2  1  0
  2  3  1  0
  3  4  1  0
  4  5  1  0
  5  6  1  0
  6  7  2  0
  7  8  1  0
  8  9  2  0
  9 10  1  0
 10 11  2  0
 11 12  1  0
 12 13  1  0
 13 14  1  0
 14 15  1  0
 15 16  1  0
  9 17  1  0
 17 18  2  0
 18 19  1  0
 19 20  2  0
 20 21  1  0
 21 22  1  0
 22 23  2  0
 23 24  1  0
 24 25  2  0
 25 26  1  0
 26 27  2  0
 26 28  1  0
 28 29  3  0
 11  6  1  0
 20  8  1  0
 27 22  1  0
  1 30  1  0
  1 31  1  0
  1 32  1  0
  3 33  1  0
  3 34  1  0
  4 35  1  0
  4 36  1  0
  7 37  1  0
 10 38  1  0
 13 39  1  0
 13 40  1  0
 14 41  1  0
 14 42  1  0
 16 43  1  0
 16 44  1  0
 16 45  1  0
 18 46  1  0
 21 47  1  0
 23 48  1  0
 24 49  1  0
 25 50  1  0
 27 51  1  0
 29 52  1  0
M  END
>  <energy_abs>  (278) 
62.426364761549756

>  <SMILES>  (278) 
COCCOc1cc2c(cc1OCCOC)ncnc2Nc3cccc(c3)C#C

>  <cluster_no>  (278) 
278

>  <fda_drugs_id>  (278) 
AAKJLRGGTJKAMG-UHFFFAOYSA-N

>  <initial_conformation_id>  (278) 
15

>  <minimize_method>  (278) 
MMFF

$$$$

     RDKit          3D

 52 54  0  0  0  0  0  0  0  0999 V2000
   -3.5277   -4.3532    2.3778 C   0  0  0  0  0  0  0  0  0  0  0  0
   -4.2283   -3.6101    1.3892 O   0  0  0  0  0  0  0  0  0  0  0  0
   -3.4046   -3.2227    0.2876 C   0  0  0  0  0  0  0  0  0  0  0  0
   -2.4530   -2.0749    0.6209 C   0  0  0  0  0  0  0  0  0  0  0  0
   -1.7366   -1.7207   -0.5715 O   0  0  0  0  0  0  0  0  0  0  0  0
   -1.2562   -0.4388   -0.4957 C   0  0  0  0  0  0  0  0  0  0  0  0
    0.1114   -0.2781   -0.2926 C   0  0  0  0  0  0  0  0  0  0  0  0
    0.6781    1.0168   -0.2381 C   0  0  0  0  0  0  0  0  0  0  0  0
   -0.1481    2.1338   -0.4328 C   0  0  0  0  0  0  0  0  0  0  0  0
   -1.5080    1.9432   -0.6613 C   0  0  0  0  0  0  0  0  0  0  0  0
   -2.0829    0.6713   -0.6908 C   0  0  0  0  0  0  0  0  0  0  0  0
   -3.4017    0.4063   -0.9333 O   0  0  0  0  0  0  0  0  0  0  0  0
   -4.3689    1.4433   -0.7607 C   0  0  0  0  0  0  0  0  0  0  0  0
   -4.6113    1.8052    0.7121 C   0  0  0  0  0  0  0  0  0  0  0  0
   -4.8675    0.6856    1.5651 O   0  0  0  0  0  0  0  0  0  0  0  0
   -6.0689   -0.0115    1.2615 C   0  0  0  0  0  0  0  0  0  0  0  0
    0.3170    3.3848   -0.4143 N   0  0  0  0  0  0  0  0  0  0  0  0
    1.6294    3.5351   -0.2066 C   0  0  0  0  0  0  0  0  0  0  0  0
    2.5138    2.5555   -0.0045 N   0  0  0  0  0  0  0  0  0  0  0  0
    2.0411    1.2966   -0.0116 C   0  0  0  0  0  0  0  0  0  0  0  0
    2.9309    0.2151    0.2337 N   0  0  0  0  0  0  0  0  0  0  0  0
    4.3445    0.2232    0.2327 C   0  0  0  0  0  0  0  0  0  0  0  0
    5.0301   -0.7552    0.9712 C   0  0  0  0  0  0  0  0  0  0  0  0
    6.4256   -0.8296    0.9516 C   0  0  0  0  0  0  0  0  0  0  0  0
    7.1582    0.0602    0.1696 C   0  0  0  0  0  0  0  0  0  0  0  0
    6.4943    1.0150   -0.6001 C   0  0  0  0  0  0  0  0  0  0  0  0
    5.0968    1.0860   -0.5751 C   0  0  0  0  0  0  0  0  0  0  0  0
    7.2424    1.9121   -1.4276 C   0  0  0  0  0  0  0  0  0  0  0  0
    7.8692    2.6601   -2.1274 C   0  0  0  0  0  0  0  0  0  0  0  0
   -3.0410   -5.2282    1.9348 H   0  0  0  0  0  0  0  0  0  0  0  0
   -2.7875   -3.7267    2.8852 H   0  0  0  0  0  0  0  0  0  0  0  0
   -4.2513   -4.6986    3.1238 H   0  0  0  0  0  0  0  0  0  0  0  0
   -2.8555   -4.0881   -0.1050 H   0  0  0  0  0  0  0  0  0  0  0  0
   -4.0774   -2.9034   -0.5177 H   0  0  0  0  0  0  0  0  0  0  0  0
   -3.0253   -1.2436    1.0490 H   0  0  0  0  0  0  0  0  0  0  0  0
   -1.7229   -2.3886    1.3783 H   0  0  0  0  0  0  0  0  0  0  0  0
    0.7318   -1.1650   -0.1916 H   0  0  0  0  0  0  0  0  0  0  0  0
   -2.1045    2.8341   -0.8313 H   0  0  0  0  0  0  0  0  0  0  0  0
   -5.3000    1.0530   -1.1878 H   0  0  0  0  0  0  0  0  0  0  0  0
   -4.1216    2.3267   -1.3606 H   0  0  0  0  0  0  0  0  0  0  0  0
   -3.7232    2.2967    1.1233 H   0  0  0  0  0  0  0  0  0  0  0  0
   -5.4379    2.5210    0.7940 H   0  0  0  0  0  0  0  0  0  0  0  0
   -6.9183    0.6754    1.2143 H   0  0  0  0  0  0  0  0  0  0  0  0
   -6.2497   -0.7380    2.0580 H   0  0  0  0  0  0  0  0  0  0  0  0
   -5.9706   -0.5627    0.3218 H   0  0  0  0  0  0  0  0  0  0  0  0
    2.0121    4.5499   -0.1981 H   0  0  0  0  0  0  0  0  0  0  0  0
    2.5627   -0.3451    0.9943 H   0  0  0  0  0  0  0  0  0  0  0  0
    4.4817   -1.4723    1.5776 H   0  0  0  0  0  0  0  0  0  0  0  0
    6.9388   -1.5864    1.5401 H   0  0  0  0  0  0  0  0  0  0  0  0
    8.2433   -0.0030    0.1535 H   0  0  0  0  0  0  0  0  0  0  0  0
    4.5955    1.8193   -1.2018 H   0  0  0  0  0  0  0  0  0  0  0  0
    8.4229    3.3222   -2.7516 H   0  0  0  0  0  0  0  0  0  0  0  0
  1  2  1  0
  2  3  1  0
  3  4  1  0
  4  5  1  0
  5  6  1  0
  6  7  2  0
  7  8  1  0
  8  9  2  0
  9 10  1  0
 10 11  2  0
 11 12  1  0
 12 13  1  0
 13 14  1  0
 14 15  1  0
 15 16  1  0
  9 17  1  0
 17 18  2  0
 18 19  1  0
 19 20  2  0
 20 21  1  0
 21 22  1  0
 22 23  2  0
 23 24  1  0
 24 25  2  0
 25 26  1  0
 26 27  2  0
 26 28  1  0
 28 29  3  0
 11  6  1  0
 20  8  1  0
 27 22  1  0
  1 30  1  0
  1 31  1  0
  1 32  1  0
  3 33  1  0
  3 34  1  0
  4 35  1  0
  4 36  1  0
  7 37  1  0
 10 38  1  0
 13 39  1  0
 13 40  1  0
 14 41  1  0
 14 42  1  0
 16 43  1  0
 16 44  1  0
 16 45  1  0
 18 46  1  0
 21 47  1  0
 23 48  1  0
 24 49  1  0
 25 50  1  0
 27 51  1  0
 29 52  1  0
M  END
>  <energy_abs>  (279) 
62.039677517201724

>  <SMILES>  (279) 
COCCOc1cc2c(cc1OCCOC)ncnc2Nc3cccc(c3)C#C

>  <cluster_no>  (279) 
279

>  <fda_drugs_id>  (279) 
AAKJLRGGTJKAMG-UHFFFAOYSA-N

>  <initial_conformation_id>  (279) 
14

>  <minimize_method>  (279) 
MMFF

$$$$

     RDKit          3D

 52 54  0  0  0  0  0  0  0  0999 V2000
   -2.2194   -5.2370    0.9571 C   0  0  0  0  0  0  0  0  0  0  0  0
   -1.0962   -4.3989    1.1648 O   0  0  0  0  0  0  0  0  0  0  0  0
   -1.4388   -3.1159    1.6796 C   0  0  0  0  0  0  0  0  0  0  0  0
   -2.0038   -2.1893    0.6078 C   0  0  0  0  0  0  0  0  0  0  0  0
   -2.1259   -0.8688    1.1483 O   0  0  0  0  0  0  0  0  0  0  0  0
   -1.5028    0.0806    0.3869 C   0  0  0  0  0  0  0  0  0  0  0  0
   -0.1191    0.0219    0.2002 C   0  0  0  0  0  0  0  0  0  0  0  0
    0.5508    0.9793   -0.6017 C   0  0  0  0  0  0  0  0  0  0  0  0
   -0.1843    2.0182   -1.1850 C   0  0  0  0  0  0  0  0  0  0  0  0
   -1.5550    2.0724   -0.9639 C   0  0  0  0  0  0  0  0  0  0  0  0
   -2.2241    1.1367   -0.1662 C   0  0  0  0  0  0  0  0  0  0  0  0
   -3.5726    1.3475   -0.0595 O   0  0  0  0  0  0  0  0  0  0  0  0
   -4.1583    1.0280    1.2106 C   0  0  0  0  0  0  0  0  0  0  0  0
   -5.4314    1.8564    1.3881 C   0  0  0  0  0  0  0  0  0  0  0  0
   -6.4668    1.3407    0.5421 O   0  0  0  0  0  0  0  0  0  0  0  0
   -7.6545    2.1190    0.6322 C   0  0  0  0  0  0  0  0  0  0  0  0
    0.3808    2.9655   -1.9379 N   0  0  0  0  0  0  0  0  0  0  0  0
    1.7043    2.8865   -2.1101 C   0  0  0  0  0  0  0  0  0  0  0  0
    2.5096    1.9426   -1.6150 N   0  0  0  0  0  0  0  0  0  0  0  0
    1.9349    0.9855   -0.8683 C   0  0  0  0  0  0  0  0  0  0  0  0
    2.7368   -0.0690   -0.3528 N   0  0  0  0  0  0  0  0  0  0  0  0
    4.1468   -0.1221   -0.2585 C   0  0  0  0  0  0  0  0  0  0  0  0
    4.7871   -1.3711   -0.2705 C   0  0  0  0  0  0  0  0  0  0  0  0
    6.1729   -1.4736   -0.1204 C   0  0  0  0  0  0  0  0  0  0  0  0
    6.9389   -0.3241    0.0681 C   0  0  0  0  0  0  0  0  0  0  0  0
    6.3169    0.9238    0.1185 C   0  0  0  0  0  0  0  0  0  0  0  0
    4.9290    1.0190   -0.0315 C   0  0  0  0  0  0  0  0  0  0  0  0
    7.0995    2.1048    0.3143 C   0  0  0  0  0  0  0  0  0  0  0  0
    7.7633    3.0959    0.4519 C   0  0  0  0  0  0  0  0  0  0  0  0
   -1.8573   -6.2114    0.6349 H   0  0  0  0  0  0  0  0  0  0  0  0
   -2.8693   -4.8368    0.1774 H   0  0  0  0  0  0  0  0  0  0  0  0
   -2.7839   -5.3668    1.8858 H   0  0  0  0  0  0  0  0  0  0  0  0
   -2.1246   -3.2052    2.5317 H   0  0  0  0  0  0  0  0  0  0  0  0
   -0.5186   -2.6751    2.0761 H   0  0  0  0  0  0  0  0  0  0  0  0
   -1.3980   -2.2429   -0.3075 H   0  0  0  0  0  0  0  0  0  0  0  0
   -3.0077   -2.5173    0.3256 H   0  0  0  0  0  0  0  0  0  0  0  0
    0.4484   -0.7620    0.6951 H   0  0  0  0  0  0  0  0  0  0  0  0
   -2.1241    2.8781   -1.4195 H   0  0  0  0  0  0  0  0  0  0  0  0
   -3.4687    1.2734    2.0263 H   0  0  0  0  0  0  0  0  0  0  0  0
   -4.4174   -0.0370    1.2276 H   0  0  0  0  0  0  0  0  0  0  0  0
   -5.2431    2.9025    1.1308 H   0  0  0  0  0  0  0  0  0  0  0  0
   -5.7675    1.7905    2.4278 H   0  0  0  0  0  0  0  0  0  0  0  0
   -8.0451    2.1001    1.6535 H   0  0  0  0  0  0  0  0  0  0  0  0
   -7.4628    3.1479    0.3176 H   0  0  0  0  0  0  0  0  0  0  0  0
   -8.3993    1.6840   -0.0358 H   0  0  0  0  0  0  0  0  0  0  0  0
    2.1669    3.6582   -2.7133 H   0  0  0  0  0  0  0  0  0  0  0  0
    2.3526   -0.9532   -0.6695 H   0  0  0  0  0  0  0  0  0  0  0  0
    4.2105   -2.2847   -0.4070 H   0  0  0  0  0  0  0  0  0  0  0  0
    6.6530   -2.4479   -0.1476 H   0  0  0  0  0  0  0  0  0  0  0  0
    8.0169   -0.4067    0.1829 H   0  0  0  0  0  0  0  0  0  0  0  0
    4.4566    1.9972    0.0353 H   0  0  0  0  0  0  0  0  0  0  0  0
    8.3420    3.9794    0.5805 H   0  0  0  0  0  0  0  0  0  0  0  0
  1  2  1  0
  2  3  1  0
  3  4  1  0
  4  5  1  0
  5  6  1  0
  6  7  2  0
  7  8  1  0
  8  9  2  0
  9 10  1  0
 10 11  2  0
 11 12  1  0
 12 13  1  0
 13 14  1  0
 14 15  1  0
 15 16  1  0
  9 17  1  0
 17 18  2  0
 18 19  1  0
 19 20  2  0
 20 21  1  0
 21 22  1  0
 22 23  2  0
 23 24  1  0
 24 25  2  0
 25 26  1  0
 26 27  2  0
 26 28  1  0
 28 29  3  0
 11  6  1  0
 20  8  1  0
 27 22  1  0
  1 30  1  0
  1 31  1  0
  1 32  1  0
  3 33  1  0
  3 34  1  0
  4 35  1  0
  4 36  1  0
  7 37  1  0
 10 38  1  0
 13 39  1  0
 13 40  1  0
 14 41  1  0
 14 42  1  0
 16 43  1  0
 16 44  1  0
 16 45  1  0
 18 46  1  0
 21 47  1  0
 23 48  1  0
 24 49  1  0
 25 50  1  0
 27 51  1  0
 29 52  1  0
M  END
>  <energy_abs>  (280) 
60.16273747385591

>  <SMILES>  (280) 
COCCOc1cc2c(cc1OCCOC)ncnc2Nc3cccc(c3)C#C

>  <cluster_no>  (280) 
280

>  <fda_drugs_id>  (280) 
AAKJLRGGTJKAMG-UHFFFAOYSA-N

>  <initial_conformation_id>  (280) 
13

>  <minimize_method>  (280) 
MMFF

$$$$

     RDKit          3D

 52 54  0  0  0  0  0  0  0  0999 V2000
   -4.3122   -4.3076    1.7497 C   0  0  0  0  0  0  0  0  0  0  0  0
   -3.3174   -3.2971    1.6320 O   0  0  0  0  0  0  0  0  0  0  0  0
   -2.5847   -3.4268    0.4089 C   0  0  0  0  0  0  0  0  0  0  0  0
   -1.5429   -2.3117    0.3122 C   0  0  0  0  0  0  0  0  0  0  0  0
   -2.2118   -1.0856    0.0043 O   0  0  0  0  0  0  0  0  0  0  0  0
   -1.4438    0.0166   -0.2481 C   0  0  0  0  0  0  0  0  0  0  0  0
   -0.0579    0.0867   -0.1109 C   0  0  0  0  0  0  0  0  0  0  0  0
    0.6563    1.2791   -0.4252 C   0  0  0  0  0  0  0  0  0  0  0  0
   -0.0516    2.4107   -0.8574 C   0  0  0  0  0  0  0  0  0  0  0  0
   -1.4282    2.3294   -0.9891 C   0  0  0  0  0  0  0  0  0  0  0  0
   -2.1212    1.1613   -0.6735 C   0  0  0  0  0  0  0  0  0  0  0  0
   -3.4791    1.1702   -0.8657 O   0  0  0  0  0  0  0  0  0  0  0  0
   -4.1862    1.1879    0.3821 C   0  0  0  0  0  0  0  0  0  0  0  0
   -5.3810    0.2413    0.2903 C   0  0  0  0  0  0  0  0  0  0  0  0
   -6.1614    0.2519    1.4867 O   0  0  0  0  0  0  0  0  0  0  0  0
   -5.6540   -0.6355    2.4756 C   0  0  0  0  0  0  0  0  0  0  0  0
    0.5408    3.5721   -1.1419 N   0  0  0  0  0  0  0  0  0  0  0  0
    1.8645    3.6272   -0.9756 C   0  0  0  0  0  0  0  0  0  0  0  0
    2.6503    2.6224   -0.5832 N   0  0  0  0  0  0  0  0  0  0  0  0
    2.0576    1.4414   -0.3356 C   0  0  0  0  0  0  0  0  0  0  0  0
    2.8492    0.3363    0.0988 N   0  0  0  0  0  0  0  0  0  0  0  0
    4.2601    0.2705    0.2278 C   0  0  0  0  0  0  0  0  0  0  0  0
    4.7864   -0.6629    1.1341 C   0  0  0  0  0  0  0  0  0  0  0  0
    6.1649   -0.8485    1.2602 C   0  0  0  0  0  0  0  0  0  0  0  0
    7.0387   -0.1171    0.4594 C   0  0  0  0  0  0  0  0  0  0  0  0
    6.5318    0.7909   -0.4709 C   0  0  0  0  0  0  0  0  0  0  0  0
    5.1492    0.9726   -0.5930 C   0  0  0  0  0  0  0  0  0  0  0  0
    7.4270    1.5288   -1.3092 C   0  0  0  0  0  0  0  0  0  0  0  0
    8.1756    2.1499   -2.0134 C   0  0  0  0  0  0  0  0  0  0  0  0
   -3.8535   -5.3013    1.7415 H   0  0  0  0  0  0  0  0  0  0  0  0
   -5.0418   -4.2212    0.9387 H   0  0  0  0  0  0  0  0  0  0  0  0
   -4.8312   -4.1707    2.7023 H   0  0  0  0  0  0  0  0  0  0  0  0
   -2.0788   -4.3983    0.4055 H   0  0  0  0  0  0  0  0  0  0  0  0
   -3.2809   -3.3699   -0.4353 H   0  0  0  0  0  0  0  0  0  0  0  0
   -0.8413   -2.5591   -0.4926 H   0  0  0  0  0  0  0  0  0  0  0  0
   -1.0168   -2.2126    1.2684 H   0  0  0  0  0  0  0  0  0  0  0  0
    0.4956   -0.7688    0.2582 H   0  0  0  0  0  0  0  0  0  0  0  0
   -1.9804    3.1985   -1.3369 H   0  0  0  0  0  0  0  0  0  0  0  0
   -3.5566    0.9333    1.2438 H   0  0  0  0  0  0  0  0  0  0  0  0
   -4.5436    2.2103    0.5551 H   0  0  0  0  0  0  0  0  0  0  0  0
   -6.0329    0.5726   -0.5262 H   0  0  0  0  0  0  0  0  0  0  0  0
   -5.0684   -0.7778    0.0328 H   0  0  0  0  0  0  0  0  0  0  0  0
   -5.6993   -1.6668    2.1152 H   0  0  0  0  0  0  0  0  0  0  0  0
   -4.6298   -0.3768    2.7546 H   0  0  0  0  0  0  0  0  0  0  0  0
   -6.2868   -0.5542    3.3640 H   0  0  0  0  0  0  0  0  0  0  0  0
    2.3474    4.5765   -1.1813 H   0  0  0  0  0  0  0  0  0  0  0  0
    2.5663   -0.4741   -0.4481 H   0  0  0  0  0  0  0  0  0  0  0  0
    4.1154   -1.2404    1.7655 H   0  0  0  0  0  0  0  0  0  0  0  0
    6.5546   -1.5626    1.9811 H   0  0  0  0  0  0  0  0  0  0  0  0
    8.1114   -0.2623    0.5597 H   0  0  0  0  0  0  0  0  0  0  0  0
    4.7762    1.6645   -1.3425 H   0  0  0  0  0  0  0  0  0  0  0  0
    8.8380    2.7034   -2.6372 H   0  0  0  0  0  0  0  0  0  0  0  0
  1  2  1  0
  2  3  1  0
  3  4  1  0
  4  5  1  0
  5  6  1  0
  6  7  2  0
  7  8  1  0
  8  9  2  0
  9 10  1  0
 10 11  2  0
 11 12  1  0
 12 13  1  0
 13 14  1  0
 14 15  1  0
 15 16  1  0
  9 17  1  0
 17 18  2  0
 18 19  1  0
 19 20  2  0
 20 21  1  0
 21 22  1  0
 22 23  2  0
 23 24  1  0
 24 25  2  0
 25 26  1  0
 26 27  2  0
 26 28  1  0
 28 29  3  0
 11  6  1  0
 20  8  1  0
 27 22  1  0
  1 30  1  0
  1 31  1  0
  1 32  1  0
  3 33  1  0
  3 34  1  0
  4 35  1  0
  4 36  1  0
  7 37  1  0
 10 38  1  0
 13 39  1  0
 13 40  1  0
 14 41  1  0
 14 42  1  0
 16 43  1  0
 16 44  1  0
 16 45  1  0
 18 46  1  0
 21 47  1  0
 23 48  1  0
 24 49  1  0
 25 50  1  0
 27 51  1  0
 29 52  1  0
M  END
>  <energy_abs>  (281) 
60.83771277337338

>  <SMILES>  (281) 
COCCOc1cc2c(cc1OCCOC)ncnc2Nc3cccc(c3)C#C

>  <cluster_no>  (281) 
281

>  <fda_drugs_id>  (281) 
AAKJLRGGTJKAMG-UHFFFAOYSA-N

>  <initial_conformation_id>  (281) 
11

>  <minimize_method>  (281) 
MMFF

$$$$

     RDKit          3D

 52 54  0  0  0  0  0  0  0  0999 V2000
   -3.1218   -4.1514    0.3381 C   0  0  0  0  0  0  0  0  0  0  0  0
   -1.9408   -4.7219    0.8899 O   0  0  0  0  0  0  0  0  0  0  0  0
   -1.3360   -3.9099    1.9023 C   0  0  0  0  0  0  0  0  0  0  0  0
   -0.6606   -2.6541    1.3432 C   0  0  0  0  0  0  0  0  0  0  0  0
   -1.6467   -1.6343    1.1565 O   0  0  0  0  0  0  0  0  0  0  0  0
   -1.2191   -0.4033    0.7417 C   0  0  0  0  0  0  0  0  0  0  0  0
    0.0972   -0.0645    0.4319 C   0  0  0  0  0  0  0  0  0  0  0  0
    0.4397    1.2518    0.0121 C   0  0  0  0  0  0  0  0  0  0  0  0
   -0.5644    2.2236   -0.1176 C   0  0  0  0  0  0  0  0  0  0  0  0
   -1.8690    1.8794    0.2017 C   0  0  0  0  0  0  0  0  0  0  0  0
   -2.1976    0.5851    0.6134 C   0  0  0  0  0  0  0  0  0  0  0  0
   -3.4992    0.3197    0.9578 O   0  0  0  0  0  0  0  0  0  0  0  0
   -4.2878    0.0372   -0.2169 C   0  0  0  0  0  0  0  0  0  0  0  0
   -5.6636    0.6823   -0.0437 C   0  0  0  0  0  0  0  0  0  0  0  0
   -5.5480    2.0950   -0.2435 O   0  0  0  0  0  0  0  0  0  0  0  0
   -6.7810    2.7651    0.0022 C   0  0  0  0  0  0  0  0  0  0  0  0
   -0.3149    3.4678   -0.5334 N   0  0  0  0  0  0  0  0  0  0  0  0
    0.9556    3.7571   -0.8360 C   0  0  0  0  0  0  0  0  0  0  0  0
    1.9994    2.9280   -0.7421 N   0  0  0  0  0  0  0  0  0  0  0  0
    1.7458    1.6828   -0.3037 C   0  0  0  0  0  0  0  0  0  0  0  0
    2.8277    0.7783   -0.1071 N   0  0  0  0  0  0  0  0  0  0  0  0
    4.1549    0.8839   -0.5835 C   0  0  0  0  0  0  0  0  0  0  0  0
    4.4774    1.5188   -1.7892 C   0  0  0  0  0  0  0  0  0  0  0  0
    5.7909    1.5400   -2.2658 C   0  0  0  0  0  0  0  0  0  0  0  0
    6.8012    0.9005   -1.5527 C   0  0  0  0  0  0  0  0  0  0  0  0
    6.4947    0.2292   -0.3693 C   0  0  0  0  0  0  0  0  0  0  0  0
    5.1787    0.2112    0.1030 C   0  0  0  0  0  0  0  0  0  0  0  0
    7.5227   -0.4428    0.3612 C   0  0  0  0  0  0  0  0  0  0  0  0
    8.3834   -1.0000    0.9789 C   0  0  0  0  0  0  0  0  0  0  0  0
   -3.6240   -4.9217   -0.2532 H   0  0  0  0  0  0  0  0  0  0  0  0
   -3.8064   -3.8168    1.1242 H   0  0  0  0  0  0  0  0  0  0  0  0
   -2.8718   -3.3236   -0.3324 H   0  0  0  0  0  0  0  0  0  0  0  0
   -0.5681   -4.5388    2.3660 H   0  0  0  0  0  0  0  0  0  0  0  0
   -2.0786   -3.6643    2.6700 H   0  0  0  0  0  0  0  0  0  0  0  0
   -0.1797   -2.8863    0.3861 H   0  0  0  0  0  0  0  0  0  0  0  0
    0.0784   -2.3082    2.0754 H   0  0  0  0  0  0  0  0  0  0  0  0
    0.8857   -0.8099    0.4876 H   0  0  0  0  0  0  0  0  0  0  0  0
   -2.6547    2.6298    0.1270 H   0  0  0  0  0  0  0  0  0  0  0  0
   -4.3943   -1.0531   -0.2860 H   0  0  0  0  0  0  0  0  0  0  0  0
   -3.8178    0.4049   -1.1381 H   0  0  0  0  0  0  0  0  0  0  0  0
   -6.3590    0.2788   -0.7893 H   0  0  0  0  0  0  0  0  0  0  0  0
   -6.0512    0.4912    0.9634 H   0  0  0  0  0  0  0  0  0  0  0  0
   -7.1014    2.6312    1.0431 H   0  0  0  0  0  0  0  0  0  0  0  0
   -7.5592    2.4017   -0.6788 H   0  0  0  0  0  0  0  0  0  0  0  0
   -6.6301    3.8286   -0.1761 H   0  0  0  0  0  0  0  0  0  0  0  0
    1.1589    4.7628   -1.1861 H   0  0  0  0  0  0  0  0  0  0  0  0
    2.8127    0.4791    0.8625 H   0  0  0  0  0  0  0  0  0  0  0  0
    3.7043    2.0037   -2.3792 H   0  0  0  0  0  0  0  0  0  0  0  0
    6.0190    2.0503   -3.1984 H   0  0  0  0  0  0  0  0  0  0  0  0
    7.8191    0.9207   -1.9299 H   0  0  0  0  0  0  0  0  0  0  0  0
    4.9558   -0.3298    1.0194 H   0  0  0  0  0  0  0  0  0  0  0  0
    9.1481   -1.4911    1.5266 H   0  0  0  0  0  0  0  0  0  0  0  0
  1  2  1  0
  2  3  1  0
  3  4  1  0
  4  5  1  0
  5  6  1  0
  6  7  2  0
  7  8  1  0
  8  9  2  0
  9 10  1  0
 10 11  2  0
 11 12  1  0
 12 13  1  0
 13 14  1  0
 14 15  1  0
 15 16  1  0
  9 17  1  0
 17 18  2  0
 18 19  1  0
 19 20  2  0
 20 21  1  0
 21 22  1  0
 22 23  2  0
 23 24  1  0
 24 25  2  0
 25 26  1  0
 26 27  2  0
 26 28  1  0
 28 29  3  0
 11  6  1  0
 20  8  1  0
 27 22  1  0
  1 30  1  0
  1 31  1  0
  1 32  1  0
  3 33  1  0
  3 34  1  0
  4 35  1  0
  4 36  1  0
  7 37  1  0
 10 38  1  0
 13 39  1  0
 13 40  1  0
 14 41  1  0
 14 42  1  0
 16 43  1  0
 16 44  1  0
 16 45  1  0
 18 46  1  0
 21 47  1  0
 23 48  1  0
 24 49  1  0
 25 50  1  0
 27 51  1  0
 29 52  1  0
M  END
>  <energy_abs>  (282) 
59.29539956106957

>  <SMILES>  (282) 
COCCOc1cc2c(cc1OCCOC)ncnc2Nc3cccc(c3)C#C

>  <cluster_no>  (282) 
282

>  <fda_drugs_id>  (282) 
AAKJLRGGTJKAMG-UHFFFAOYSA-N

>  <initial_conformation_id>  (282) 
10

>  <minimize_method>  (282) 
MMFF

$$$$

     RDKit          3D

 52 54  0  0  0  0  0  0  0  0999 V2000
    0.9915   -4.1883    0.7001 C   0  0  0  0  0  0  0  0  0  0  0  0
   -0.3786   -4.3998    1.0164 O   0  0  0  0  0  0  0  0  0  0  0  0
   -1.1249   -3.1840    1.0812 C   0  0  0  0  0  0  0  0  0  0  0  0
   -1.6581   -2.7791   -0.2942 C   0  0  0  0  0  0  0  0  0  0  0  0
   -2.3608   -1.5387   -0.2432 O   0  0  0  0  0  0  0  0  0  0  0  0
   -1.6565   -0.3632   -0.2342 C   0  0  0  0  0  0  0  0  0  0  0  0
   -0.2840   -0.2528   -0.4568 C   0  0  0  0  0  0  0  0  0  0  0  0
    0.3658    1.0076   -0.4214 C   0  0  0  0  0  0  0  0  0  0  0  0
   -0.3797    2.1586   -0.1444 C   0  0  0  0  0  0  0  0  0  0  0  0
   -1.7481    2.0386    0.0618 C   0  0  0  0  0  0  0  0  0  0  0  0
   -2.3997    0.8008    0.0170 C   0  0  0  0  0  0  0  0  0  0  0  0
   -3.7453    0.6220    0.2181 O   0  0  0  0  0  0  0  0  0  0  0  0
   -4.5462    1.7769    0.4607 C   0  0  0  0  0  0  0  0  0  0  0  0
   -6.0011    1.3326    0.6085 C   0  0  0  0  0  0  0  0  0  0  0  0
   -6.8811    2.4375    0.8177 O   0  0  0  0  0  0  0  0  0  0  0  0
   -6.9363    2.8528    2.1760 C   0  0  0  0  0  0  0  0  0  0  0  0
    0.1711    3.3728   -0.0677 N   0  0  0  0  0  0  0  0  0  0  0  0
    1.4919    3.4488   -0.2617 C   0  0  0  0  0  0  0  0  0  0  0  0
    2.3067    2.4287   -0.5393 N   0  0  0  0  0  0  0  0  0  0  0  0
    1.7451    1.2109   -0.6308 C   0  0  0  0  0  0  0  0  0  0  0  0
    2.5544    0.0937   -0.9796 N   0  0  0  0  0  0  0  0  0  0  0  0
    3.9648   -0.0060   -0.9464 C   0  0  0  0  0  0  0  0  0  0  0  0
    4.5992   -0.9495   -1.7706 C   0  0  0  0  0  0  0  0  0  0  0  0
    5.9834   -1.1355   -1.7227 C   0  0  0  0  0  0  0  0  0  0  0  0
    6.7537   -0.3968   -0.8276 C   0  0  0  0  0  0  0  0  0  0  0  0
    6.1374    0.5177    0.0260 C   0  0  0  0  0  0  0  0  0  0  0  0
    4.7509    0.7001   -0.0266 C   0  0  0  0  0  0  0  0  0  0  0  0
    6.9226    1.2616    0.9631 C   0  0  0  0  0  0  0  0  0  0  0  0
    7.5808    1.8863    1.7496 C   0  0  0  0  0  0  0  0  0  0  0  0
    1.4895   -5.1611    0.6670 H   0  0  0  0  0  0  0  0  0  0  0  0
    1.4721   -3.5786    1.4713 H   0  0  0  0  0  0  0  0  0  0  0  0
    1.0986   -3.7105   -0.2776 H   0  0  0  0  0  0  0  0  0  0  0  0
   -1.9764   -3.3565    1.7495 H   0  0  0  0  0  0  0  0  0  0  0  0
   -0.5332   -2.3893    1.5499 H   0  0  0  0  0  0  0  0  0  0  0  0
   -2.3822   -3.5389   -0.6137 H   0  0  0  0  0  0  0  0  0  0  0  0
   -0.8944   -2.7905   -1.0790 H   0  0  0  0  0  0  0  0  0  0  0  0
    0.3189   -1.1336   -0.6441 H   0  0  0  0  0  0  0  0  0  0  0  0
   -2.2941    2.9547    0.2661 H   0  0  0  0  0  0  0  0  0  0  0  0
   -4.4739    2.4843   -0.3746 H   0  0  0  0  0  0  0  0  0  0  0  0
   -4.2165    2.2773    1.3780 H   0  0  0  0  0  0  0  0  0  0  0  0
   -6.1113    0.5850    1.4038 H   0  0  0  0  0  0  0  0  0  0  0  0
   -6.3150    0.8369   -0.3174 H   0  0  0  0  0  0  0  0  0  0  0  0
   -7.2822    2.0339    2.8141 H   0  0  0  0  0  0  0  0  0  0  0  0
   -5.9613    3.2109    2.5168 H   0  0  0  0  0  0  0  0  0  0  0  0
   -7.6513    3.6766    2.2524 H   0  0  0  0  0  0  0  0  0  0  0  0
    1.9437    4.4323   -0.1904 H   0  0  0  0  0  0  0  0  0  0  0  0
    2.1775   -0.3185   -1.8276 H   0  0  0  0  0  0  0  0  0  0  0  0
    4.0202   -1.5492   -2.4682 H   0  0  0  0  0  0  0  0  0  0  0  0
    6.4589   -1.8594   -2.3793 H   0  0  0  0  0  0  0  0  0  0  0  0
    7.8302   -0.5447   -0.7920 H   0  0  0  0  0  0  0  0  0  0  0  0
    4.2856    1.3989    0.6639 H   0  0  0  0  0  0  0  0  0  0  0  0
    8.1625    2.4420    2.4474 H   0  0  0  0  0  0  0  0  0  0  0  0
  1  2  1  0
  2  3  1  0
  3  4  1  0
  4  5  1  0
  5  6  1  0
  6  7  2  0
  7  8  1  0
  8  9  2  0
  9 10  1  0
 10 11  2  0
 11 12  1  0
 12 13  1  0
 13 14  1  0
 14 15  1  0
 15 16  1  0
  9 17  1  0
 17 18  2  0
 18 19  1  0
 19 20  2  0
 20 21  1  0
 21 22  1  0
 22 23  2  0
 23 24  1  0
 24 25  2  0
 25 26  1  0
 26 27  2  0
 26 28  1  0
 28 29  3  0
 11  6  1  0
 20  8  1  0
 27 22  1  0
  1 30  1  0
  1 31  1  0
  1 32  1  0
  3 33  1  0
  3 34  1  0
  4 35  1  0
  4 36  1  0
  7 37  1  0
 10 38  1  0
 13 39  1  0
 13 40  1  0
 14 41  1  0
 14 42  1  0
 16 43  1  0
 16 44  1  0
 16 45  1  0
 18 46  1  0
 21 47  1  0
 23 48  1  0
 24 49  1  0
 25 50  1  0
 27 51  1  0
 29 52  1  0
M  END
>  <energy_abs>  (283) 
60.613315085219796

>  <SMILES>  (283) 
COCCOc1cc2c(cc1OCCOC)ncnc2Nc3cccc(c3)C#C

>  <cluster_no>  (283) 
283

>  <fda_drugs_id>  (283) 
AAKJLRGGTJKAMG-UHFFFAOYSA-N

>  <initial_conformation_id>  (283) 
9

>  <minimize_method>  (283) 
MMFF

$$$$

     RDKit          3D

 52 54  0  0  0  0  0  0  0  0999 V2000
    0.0320   -5.6465    0.8223 C   0  0  0  0  0  0  0  0  0  0  0  0
    0.4501   -4.4623    0.1553 O   0  0  0  0  0  0  0  0  0  0  0  0
   -0.6311   -3.5815   -0.1509 C   0  0  0  0  0  0  0  0  0  0  0  0
   -1.0908   -2.7829    1.0698 C   0  0  0  0  0  0  0  0  0  0  0  0
   -2.0263   -1.7715    0.7027 O   0  0  0  0  0  0  0  0  0  0  0  0
   -1.5695   -0.5341    0.3295 C   0  0  0  0  0  0  0  0  0  0  0  0
   -0.2258   -0.1932    0.1656 C   0  0  0  0  0  0  0  0  0  0  0  0
    0.1570    1.1135   -0.2340 C   0  0  0  0  0  0  0  0  0  0  0  0
   -0.8313    2.0803   -0.4490 C   0  0  0  0  0  0  0  0  0  0  0  0
   -2.1651    1.7280   -0.2882 C   0  0  0  0  0  0  0  0  0  0  0  0
   -2.5535    0.4385    0.0895 C   0  0  0  0  0  0  0  0  0  0  0  0
   -3.8515    0.0305    0.2640 O   0  0  0  0  0  0  0  0  0  0  0  0
   -4.9175    0.9371   -0.0119 C   0  0  0  0  0  0  0  0  0  0  0  0
   -5.2471    1.7961    1.2095 C   0  0  0  0  0  0  0  0  0  0  0  0
   -6.3225    2.6990    0.9503 O   0  0  0  0  0  0  0  0  0  0  0  0
   -5.8970    3.8995    0.3185 C   0  0  0  0  0  0  0  0  0  0  0  0
   -0.5497    3.3361   -0.8043 N   0  0  0  0  0  0  0  0  0  0  0  0
    0.7434    3.6446   -0.9453 C   0  0  0  0  0  0  0  0  0  0  0  0
    1.7742    2.8144   -0.7750 N   0  0  0  0  0  0  0  0  0  0  0  0
    1.4855    1.5470   -0.4303 C   0  0  0  0  0  0  0  0  0  0  0  0
    2.5415    0.6086   -0.2706 N   0  0  0  0  0  0  0  0  0  0  0  0
    3.9294    0.8511   -0.1522 C   0  0  0  0  0  0  0  0  0  0  0  0
    4.4498    2.0295    0.3964 C   0  0  0  0  0  0  0  0  0  0  0  0
    5.8273    2.2036    0.5617 C   0  0  0  0  0  0  0  0  0  0  0  0
    6.7079    1.1857    0.2030 C   0  0  0  0  0  0  0  0  0  0  0  0
    6.2085   -0.0106   -0.3089 C   0  0  0  0  0  0  0  0  0  0  0  0
    4.8288   -0.1793   -0.4724 C   0  0  0  0  0  0  0  0  0  0  0  0
    7.1051   -1.0691   -0.6604 C   0  0  0  0  0  0  0  0  0  0  0  0
    7.8571   -1.9576   -0.9556 C   0  0  0  0  0  0  0  0  0  0  0  0
    0.9068   -6.2884    0.9580 H   0  0  0  0  0  0  0  0  0  0  0  0
   -0.7054   -6.1876    0.2219 H   0  0  0  0  0  0  0  0  0  0  0  0
   -0.3790   -5.4141    1.8084 H   0  0  0  0  0  0  0  0  0  0  0  0
   -0.2725   -2.9001   -0.9292 H   0  0  0  0  0  0  0  0  0  0  0  0
   -1.4680   -4.1309   -0.5995 H   0  0  0  0  0  0  0  0  0  0  0  0
   -0.2540   -2.3945    1.6621 H   0  0  0  0  0  0  0  0  0  0  0  0
   -1.6210   -3.4578    1.7516 H   0  0  0  0  0  0  0  0  0  0  0  0
    0.5555   -0.9228    0.3503 H   0  0  0  0  0  0  0  0  0  0  0  0
   -2.8965    2.5093   -0.4658 H   0  0  0  0  0  0  0  0  0  0  0  0
   -4.7429    1.5206   -0.9223 H   0  0  0  0  0  0  0  0  0  0  0  0
   -5.7988    0.3272   -0.2463 H   0  0  0  0  0  0  0  0  0  0  0  0
   -5.5641    1.1365    2.0256 H   0  0  0  0  0  0  0  0  0  0  0  0
   -4.3703    2.3354    1.5861 H   0  0  0  0  0  0  0  0  0  0  0  0
   -5.4533    3.6926   -0.6590 H   0  0  0  0  0  0  0  0  0  0  0  0
   -5.1813    4.4324    0.9518 H   0  0  0  0  0  0  0  0  0  0  0  0
   -6.7726    4.5378    0.1722 H   0  0  0  0  0  0  0  0  0  0  0  0
    0.9776    4.6654   -1.2273 H   0  0  0  0  0  0  0  0  0  0  0  0
    2.3590   -0.1960   -0.8622 H   0  0  0  0  0  0  0  0  0  0  0  0
    3.7864    2.8308    0.7106 H   0  0  0  0  0  0  0  0  0  0  0  0
    6.2078    3.1325    0.9780 H   0  0  0  0  0  0  0  0  0  0  0  0
    7.7775    1.3269    0.3357 H   0  0  0  0  0  0  0  0  0  0  0  0
    4.4568   -1.1259   -0.8570 H   0  0  0  0  0  0  0  0  0  0  0  0
    8.5245   -2.7452   -1.2173 H   0  0  0  0  0  0  0  0  0  0  0  0
  1  2  1  0
  2  3  1  0
  3  4  1  0
  4  5  1  0
  5  6  1  0
  6  7  2  0
  7  8  1  0
  8  9  2  0
  9 10  1  0
 10 11  2  0
 11 12  1  0
 12 13  1  0
 13 14  1  0
 14 15  1  0
 15 16  1  0
  9 17  1  0
 17 18  2  0
 18 19  1  0
 19 20  2  0
 20 21  1  0
 21 22  1  0
 22 23  2  0
 23 24  1  0
 24 25  2  0
 25 26  1  0
 26 27  2  0
 26 28  1  0
 28 29  3  0
 11  6  1  0
 20  8  1  0
 27 22  1  0
  1 30  1  0
  1 31  1  0
  1 32  1  0
  3 33  1  0
  3 34  1  0
  4 35  1  0
  4 36  1  0
  7 37  1  0
 10 38  1  0
 13 39  1  0
 13 40  1  0
 14 41  1  0
 14 42  1  0
 16 43  1  0
 16 44  1  0
 16 45  1  0
 18 46  1  0
 21 47  1  0
 23 48  1  0
 24 49  1  0
 25 50  1  0
 27 51  1  0
 29 52  1  0
M  END
>  <energy_abs>  (284) 
61.799530632095006

>  <SMILES>  (284) 
COCCOc1cc2c(cc1OCCOC)ncnc2Nc3cccc(c3)C#C

>  <cluster_no>  (284) 
284

>  <fda_drugs_id>  (284) 
AAKJLRGGTJKAMG-UHFFFAOYSA-N

>  <initial_conformation_id>  (284) 
8

>  <minimize_method>  (284) 
MMFF

$$$$

     RDKit          3D

 52 54  0  0  0  0  0  0  0  0999 V2000
   -1.0904   -5.4287    0.0116 C   0  0  0  0  0  0  0  0  0  0  0  0
   -0.1465   -4.3970    0.2793 O   0  0  0  0  0  0  0  0  0  0  0  0
   -0.6860   -3.3402    1.0768 C   0  0  0  0  0  0  0  0  0  0  0  0
   -1.5224   -2.3617    0.2509 C   0  0  0  0  0  0  0  0  0  0  0  0
   -1.8964   -1.2439    1.0670 O   0  0  0  0  0  0  0  0  0  0  0  0
   -1.4362   -0.0386    0.6036 C   0  0  0  0  0  0  0  0  0  0  0  0
   -0.0773    0.1821    0.3786 C   0  0  0  0  0  0  0  0  0  0  0  0
    0.3870    1.4488   -0.0530 C   0  0  0  0  0  0  0  0  0  0  0  0
   -0.5310    2.4960   -0.2130 C   0  0  0  0  0  0  0  0  0  0  0  0
   -1.8785    2.2607    0.0404 C   0  0  0  0  0  0  0  0  0  0  0  0
   -2.3493    1.0094    0.4516 C   0  0  0  0  0  0  0  0  0  0  0  0
   -3.6619    0.7077    0.7011 O   0  0  0  0  0  0  0  0  0  0  0  0
   -4.5931    1.7909    0.7612 C   0  0  0  0  0  0  0  0  0  0  0  0
   -5.9686    1.2375    1.1499 C   0  0  0  0  0  0  0  0  0  0  0  0
   -6.5691    0.4722    0.0981 O   0  0  0  0  0  0  0  0  0  0  0  0
   -7.2418    1.2723   -0.8633 C   0  0  0  0  0  0  0  0  0  0  0  0
   -0.1657    3.7212   -0.5980 N   0  0  0  0  0  0  0  0  0  0  0  0
    1.1379    3.9163   -0.8222 C   0  0  0  0  0  0  0  0  0  0  0  0
    2.1047    3.0027   -0.7079 N   0  0  0  0  0  0  0  0  0  0  0  0
    1.7327    1.7662   -0.3329 C   0  0  0  0  0  0  0  0  0  0  0  0
    2.7112    0.7400   -0.2279 N   0  0  0  0  0  0  0  0  0  0  0  0
    4.1205    0.8515   -0.2119 C   0  0  0  0  0  0  0  0  0  0  0  0
    4.7896    1.9931    0.2447 C   0  0  0  0  0  0  0  0  0  0  0  0
    6.1858    2.0373    0.3101 C   0  0  0  0  0  0  0  0  0  0  0  0
    6.9370    0.9247   -0.0597 C   0  0  0  0  0  0  0  0  0  0  0  0
    6.2899   -0.2376   -0.4763 C   0  0  0  0  0  0  0  0  0  0  0  0
    4.8921   -0.2761   -0.5375 C   0  0  0  0  0  0  0  0  0  0  0  0
    7.0529   -1.3921   -0.8396 C   0  0  0  0  0  0  0  0  0  0  0  0
    7.6914   -2.3600   -1.1524 C   0  0  0  0  0  0  0  0  0  0  0  0
   -1.9234   -5.0499   -0.5907 H   0  0  0  0  0  0  0  0  0  0  0  0
   -0.5842   -6.2172   -0.5573 H   0  0  0  0  0  0  0  0  0  0  0  0
   -1.4631   -5.8598    0.9468 H   0  0  0  0  0  0  0  0  0  0  0  0
   -1.2600   -3.7393    1.9223 H   0  0  0  0  0  0  0  0  0  0  0  0
    0.1640   -2.8063    1.5180 H   0  0  0  0  0  0  0  0  0  0  0  0
   -0.9981   -2.0801   -0.6720 H   0  0  0  0  0  0  0  0  0  0  0  0
   -2.4500   -2.8496   -0.0735 H   0  0  0  0  0  0  0  0  0  0  0  0
    0.6309   -0.6209    0.5652 H   0  0  0  0  0  0  0  0  0  0  0  0
   -2.5564    3.0977   -0.1005 H   0  0  0  0  0  0  0  0  0  0  0  0
   -4.2720    2.5038    1.5305 H   0  0  0  0  0  0  0  0  0  0  0  0
   -4.6470    2.2840   -0.2145 H   0  0  0  0  0  0  0  0  0  0  0  0
   -6.6420    2.0485    1.4497 H   0  0  0  0  0  0  0  0  0  0  0  0
   -5.8600    0.5597    2.0033 H   0  0  0  0  0  0  0  0  0  0  0  0
   -8.0454    1.8474   -0.3902 H   0  0  0  0  0  0  0  0  0  0  0  0
   -7.6866    0.6073   -1.6089 H   0  0  0  0  0  0  0  0  0  0  0  0
   -6.5455    1.9465   -1.3727 H   0  0  0  0  0  0  0  0  0  0  0  0
    1.4390    4.9108   -1.1299 H   0  0  0  0  0  0  0  0  0  0  0  0
    2.4140   -0.0553   -0.7838 H   0  0  0  0  0  0  0  0  0  0  0  0
    4.2316    2.8695    0.5618 H   0  0  0  0  0  0  0  0  0  0  0  0
    6.6828    2.9406    0.6563 H   0  0  0  0  0  0  0  0  0  0  0  0
    8.0221    0.9665   -0.0083 H   0  0  0  0  0  0  0  0  0  0  0  0
    4.4048   -1.1975   -0.8461 H   0  0  0  0  0  0  0  0  0  0  0  0
    8.2574   -3.2183   -1.4295 H   0  0  0  0  0  0  0  0  0  0  0  0
  1  2  1  0
  2  3  1  0
  3  4  1  0
  4  5  1  0
  5  6  1  0
  6  7  2  0
  7  8  1  0
  8  9  2  0
  9 10  1  0
 10 11  2  0
 11 12  1  0
 12 13  1  0
 13 14  1  0
 14 15  1  0
 15 16  1  0
  9 17  1  0
 17 18  2  0
 18 19  1  0
 19 20  2  0
 20 21  1  0
 21 22  1  0
 22 23  2  0
 23 24  1  0
 24 25  2  0
 25 26  1  0
 26 27  2  0
 26 28  1  0
 28 29  3  0
 11  6  1  0
 20  8  1  0
 27 22  1  0
  1 30  1  0
  1 31  1  0
  1 32  1  0
  3 33  1  0
  3 34  1  0
  4 35  1  0
  4 36  1  0
  7 37  1  0
 10 38  1  0
 13 39  1  0
 13 40  1  0
 14 41  1  0
 14 42  1  0
 16 43  1  0
 16 44  1  0
 16 45  1  0
 18 46  1  0
 21 47  1  0
 23 48  1  0
 24 49  1  0
 25 50  1  0
 27 51  1  0
 29 52  1  0
M  END
>  <energy_abs>  (285) 
62.2953624634397

>  <SMILES>  (285) 
COCCOc1cc2c(cc1OCCOC)ncnc2Nc3cccc(c3)C#C

>  <cluster_no>  (285) 
285

>  <fda_drugs_id>  (285) 
AAKJLRGGTJKAMG-UHFFFAOYSA-N

>  <initial_conformation_id>  (285) 
7

>  <minimize_method>  (285) 
MMFF

$$$$

     RDKit          3D

 52 54  0  0  0  0  0  0  0  0999 V2000
   -1.1965   -5.0302    3.1269 C   0  0  0  0  0  0  0  0  0  0  0  0
   -1.5361   -4.9672    1.7479 O   0  0  0  0  0  0  0  0  0  0  0  0
   -2.2519   -3.7806    1.4061 C   0  0  0  0  0  0  0  0  0  0  0  0
   -1.3107   -2.6127    1.1141 C   0  0  0  0  0  0  0  0  0  0  0  0
   -2.0982   -1.4776    0.7591 O   0  0  0  0  0  0  0  0  0  0  0  0
   -1.4502   -0.2907    0.5590 C   0  0  0  0  0  0  0  0  0  0  0  0
   -0.0667   -0.1311    0.4885 C   0  0  0  0  0  0  0  0  0  0  0  0
    0.5192    1.1528    0.2998 C   0  0  0  0  0  0  0  0  0  0  0  0
   -0.3063    2.2782    0.1654 C   0  0  0  0  0  0  0  0  0  0  0  0
   -1.6793    2.1073    0.2340 C   0  0  0  0  0  0  0  0  0  0  0  0
   -2.2494    0.8445    0.4089 C   0  0  0  0  0  0  0  0  0  0  0  0
   -3.6177    0.7916    0.4924 O   0  0  0  0  0  0  0  0  0  0  0  0
   -4.1848    0.2395   -0.7082 C   0  0  0  0  0  0  0  0  0  0  0  0
   -5.6383    0.6983   -0.8142 C   0  0  0  0  0  0  0  0  0  0  0  0
   -5.6757    2.0742   -1.2098 O   0  0  0  0  0  0  0  0  0  0  0  0
   -7.0071    2.5676   -1.2629 C   0  0  0  0  0  0  0  0  0  0  0  0
    0.1742    3.5089   -0.0293 N   0  0  0  0  0  0  0  0  0  0  0  0
    1.5025    3.6312   -0.1051 C   0  0  0  0  0  0  0  0  0  0  0  0
    2.3920    2.6429    0.0113 N   0  0  0  0  0  0  0  0  0  0  0  0
    1.9046    1.4074    0.2227 C   0  0  0  0  0  0  0  0  0  0  0  0
    2.8103    0.3247    0.4022 N   0  0  0  0  0  0  0  0  0  0  0  0
    4.1905    0.2793    0.0965 C   0  0  0  0  0  0  0  0  0  0  0  0
    5.0065   -0.6413    0.7739 C   0  0  0  0  0  0  0  0  0  0  0  0
    6.3625   -0.7718    0.4616 C   0  0  0  0  0  0  0  0  0  0  0  0
    6.9194    0.0007   -0.5548 C   0  0  0  0  0  0  0  0  0  0  0  0
    6.1167    0.8926   -1.2657 C   0  0  0  0  0  0  0  0  0  0  0  0
    4.7594    1.0188   -0.9486 C   0  0  0  0  0  0  0  0  0  0  0  0
    6.6797    1.6715   -2.3261 C   0  0  0  0  0  0  0  0  0  0  0  0
    7.1501    2.3257   -3.2163 C   0  0  0  0  0  0  0  0  0  0  0  0
   -2.0994   -5.0178    3.7448 H   0  0  0  0  0  0  0  0  0  0  0  0
   -0.6672   -5.9700    3.3060 H   0  0  0  0  0  0  0  0  0  0  0  0
   -0.5373   -4.2040    3.4066 H   0  0  0  0  0  0  0  0  0  0  0  0
   -2.8346   -3.9988    0.5037 H   0  0  0  0  0  0  0  0  0  0  0  0
   -2.9821   -3.5207    2.1824 H   0  0  0  0  0  0  0  0  0  0  0  0
   -0.6428   -2.8918    0.2901 H   0  0  0  0  0  0  0  0  0  0  0  0
   -0.7044   -2.3947    2.0008 H   0  0  0  0  0  0  0  0  0  0  0  0
    0.5891   -0.9929    0.5567 H   0  0  0  0  0  0  0  0  0  0  0  0
   -2.3298    2.9739    0.1378 H   0  0  0  0  0  0  0  0  0  0  0  0
   -3.6279    0.5686   -1.5953 H   0  0  0  0  0  0  0  0  0  0  0  0
   -4.1612   -0.8533   -0.6402 H   0  0  0  0  0  0  0  0  0  0  0  0
   -6.1437    0.5852    0.1518 H   0  0  0  0  0  0  0  0  0  0  0  0
   -6.1562    0.1021   -1.5735 H   0  0  0  0  0  0  0  0  0  0  0  0
   -6.9748    3.6127   -1.5818 H   0  0  0  0  0  0  0  0  0  0  0  0
   -7.5978    1.9989   -1.9876 H   0  0  0  0  0  0  0  0  0  0  0  0
   -7.4736    2.5181   -0.2744 H   0  0  0  0  0  0  0  0  0  0  0  0
    1.8955    4.6279   -0.2736 H   0  0  0  0  0  0  0  0  0  0  0  0
    2.6181   -0.1090    1.2990 H   0  0  0  0  0  0  0  0  0  0  0  0
    4.5938   -1.2678    1.5603 H   0  0  0  0  0  0  0  0  0  0  0  0
    6.9814   -1.4795    1.0069 H   0  0  0  0  0  0  0  0  0  0  0  0
    7.9742   -0.1039   -0.7964 H   0  0  0  0  0  0  0  0  0  0  0  0
    4.1448    1.7004   -1.5307 H   0  0  0  0  0  0  0  0  0  0  0  0
    7.5637    2.9075   -4.0065 H   0  0  0  0  0  0  0  0  0  0  0  0
  1  2  1  0
  2  3  1  0
  3  4  1  0
  4  5  1  0
  5  6  1  0
  6  7  2  0
  7  8  1  0
  8  9  2  0
  9 10  1  0
 10 11  2  0
 11 12  1  0
 12 13  1  0
 13 14  1  0
 14 15  1  0
 15 16  1  0
  9 17  1  0
 17 18  2  0
 18 19  1  0
 19 20  2  0
 20 21  1  0
 21 22  1  0
 22 23  2  0
 23 24  1  0
 24 25  2  0
 25 26  1  0
 26 27  2  0
 26 28  1  0
 28 29  3  0
 11  6  1  0
 20  8  1  0
 27 22  1  0
  1 30  1  0
  1 31  1  0
  1 32  1  0
  3 33  1  0
  3 34  1  0
  4 35  1  0
  4 36  1  0
  7 37  1  0
 10 38  1  0
 13 39  1  0
 13 40  1  0
 14 41  1  0
 14 42  1  0
 16 43  1  0
 16 44  1  0
 16 45  1  0
 18 46  1  0
 21 47  1  0
 23 48  1  0
 24 49  1  0
 25 50  1  0
 27 51  1  0
 29 52  1  0
M  END
>  <energy_abs>  (286) 
58.82167466236593

>  <SMILES>  (286) 
COCCOc1cc2c(cc1OCCOC)ncnc2Nc3cccc(c3)C#C

>  <cluster_no>  (286) 
286

>  <fda_drugs_id>  (286) 
AAKJLRGGTJKAMG-UHFFFAOYSA-N

>  <initial_conformation_id>  (286) 
6

>  <minimize_method>  (286) 
MMFF

$$$$

     RDKit          3D

 52 54  0  0  0  0  0  0  0  0999 V2000
   -3.6350   -5.1427    1.6676 C   0  0  0  0  0  0  0  0  0  0  0  0
   -2.6560   -4.2298    1.1973 O   0  0  0  0  0  0  0  0  0  0  0  0
   -2.5709   -3.0709    2.0364 C   0  0  0  0  0  0  0  0  0  0  0  0
   -1.5424   -2.1040    1.4558 C   0  0  0  0  0  0  0  0  0  0  0  0
   -2.1173   -1.4553    0.3199 O   0  0  0  0  0  0  0  0  0  0  0  0
   -1.4871   -0.3200   -0.1118 C   0  0  0  0  0  0  0  0  0  0  0  0
   -0.1075   -0.1231   -0.0447 C   0  0  0  0  0  0  0  0  0  0  0  0
    0.4862    1.0684   -0.5410 C   0  0  0  0  0  0  0  0  0  0  0  0
   -0.3353    2.0570   -1.1027 C   0  0  0  0  0  0  0  0  0  0  0  0
   -1.7029    1.8356   -1.1839 C   0  0  0  0  0  0  0  0  0  0  0  0
   -2.2873    0.6700   -0.6839 C   0  0  0  0  0  0  0  0  0  0  0  0
   -3.6353    0.4276   -0.7607 O   0  0  0  0  0  0  0  0  0  0  0  0
   -4.4790    1.4740   -0.2718 C   0  0  0  0  0  0  0  0  0  0  0  0
   -4.4081    1.6338    1.2563 C   0  0  0  0  0  0  0  0  0  0  0  0
   -4.6077    0.4231    1.9896 O   0  0  0  0  0  0  0  0  0  0  0  0
   -5.9163   -0.1156    1.8655 C   0  0  0  0  0  0  0  0  0  0  0  0
    0.1397    3.2143   -1.5665 N   0  0  0  0  0  0  0  0  0  0  0  0
    1.4573    3.4080   -1.4570 C   0  0  0  0  0  0  0  0  0  0  0  0
    2.3422    2.5453   -0.9526 N   0  0  0  0  0  0  0  0  0  0  0  0
    1.8686    1.3627   -0.5228 C   0  0  0  0  0  0  0  0  0  0  0  0
    2.7646    0.4130    0.0482 N   0  0  0  0  0  0  0  0  0  0  0  0
    4.1781    0.4673    0.1406 C   0  0  0  0  0  0  0  0  0  0  0  0
    4.7922   -0.3303    1.1195 C   0  0  0  0  0  0  0  0  0  0  0  0
    6.1817   -0.3881    1.2396 C   0  0  0  0  0  0  0  0  0  0  0  0
    6.9826    0.3443    0.3657 C   0  0  0  0  0  0  0  0  0  0  0  0
    6.3912    1.1254   -0.6303 C   0  0  0  0  0  0  0  0  0  0  0  0
    4.9953    1.1760   -0.7475 C   0  0  0  0  0  0  0  0  0  0  0  0
    7.2141    1.8756   -1.5276 C   0  0  0  0  0  0  0  0  0  0  0  0
    7.9131    2.5129   -2.2678 C   0  0  0  0  0  0  0  0  0  0  0  0
   -3.6951   -5.9766    0.9548 H   0  0  0  0  0  0  0  0  0  0  0  0
   -3.3481   -5.5369    2.6498 H   0  0  0  0  0  0  0  0  0  0  0  0
   -4.6195   -4.6586    1.7266 H   0  0  0  0  0  0  0  0  0  0  0  0
   -2.2483   -3.3897    3.0386 H   0  0  0  0  0  0  0  0  0  0  0  0
   -3.5569   -2.5874    2.0993 H   0  0  0  0  0  0  0  0  0  0  0  0
   -0.6538   -2.6557    1.1423 H   0  0  0  0  0  0  0  0  0  0  0  0
   -1.2804   -1.3673    2.2213 H   0  0  0  0  0  0  0  0  0  0  0  0
    0.5218   -0.8946    0.3863 H   0  0  0  0  0  0  0  0  0  0  0  0
   -2.3120    2.5921   -1.6684 H   0  0  0  0  0  0  0  0  0  0  0  0
   -4.2796    2.4257   -0.7753 H   0  0  0  0  0  0  0  0  0  0  0  0
   -5.4985    1.1983   -0.5590 H   0  0  0  0  0  0  0  0  0  0  0  0
   -5.1299    2.3863    1.5938 H   0  0  0  0  0  0  0  0  0  0  0  0
   -3.4146    1.9968    1.5399 H   0  0  0  0  0  0  0  0  0  0  0  0
   -5.9900   -0.9856    2.5207 H   0  0  0  0  0  0  0  0  0  0  0  0
   -6.1134   -0.4462    0.8441 H   0  0  0  0  0  0  0  0  0  0  0  0
   -6.6640    0.6167    2.1766 H   0  0  0  0  0  0  0  0  0  0  0  0
    1.8462    4.3560   -1.8121 H   0  0  0  0  0  0  0  0  0  0  0  0
    2.5215   -0.5088   -0.3072 H   0  0  0  0  0  0  0  0  0  0  0  0
    4.1790   -0.9039    1.8155 H   0  0  0  0  0  0  0  0  0  0  0  0
    6.6383   -0.9940    2.0153 H   0  0  0  0  0  0  0  0  0  0  0  0
    8.0644    0.3079    0.4671 H   0  0  0  0  0  0  0  0  0  0  0  0
    4.5589    1.7712   -1.5445 H   0  0  0  0  0  0  0  0  0  0  0  0
    8.5332    3.0793   -2.9243 H   0  0  0  0  0  0  0  0  0  0  0  0
  1  2  1  0
  2  3  1  0
  3  4  1  0
  4  5  1  0
  5  6  1  0
  6  7  2  0
  7  8  1  0
  8  9  2  0
  9 10  1  0
 10 11  2  0
 11 12  1  0
 12 13  1  0
 13 14  1  0
 14 15  1  0
 15 16  1  0
  9 17  1  0
 17 18  2  0
 18 19  1  0
 19 20  2  0
 20 21  1  0
 21 22  1  0
 22 23  2  0
 23 24  1  0
 24 25  2  0
 25 26  1  0
 26 27  2  0
 26 28  1  0
 28 29  3  0
 11  6  1  0
 20  8  1  0
 27 22  1  0
  1 30  1  0
  1 31  1  0
  1 32  1  0
  3 33  1  0
  3 34  1  0
  4 35  1  0
  4 36  1  0
  7 37  1  0
 10 38  1  0
 13 39  1  0
 13 40  1  0
 14 41  1  0
 14 42  1  0
 16 43  1  0
 16 44  1  0
 16 45  1  0
 18 46  1  0
 21 47  1  0
 23 48  1  0
 24 49  1  0
 25 50  1  0
 27 51  1  0
 29 52  1  0
M  END
>  <energy_abs>  (287) 
66.66344530038381

>  <SMILES>  (287) 
COCCOc1cc2c(cc1OCCOC)ncnc2Nc3cccc(c3)C#C

>  <cluster_no>  (287) 
287

>  <fda_drugs_id>  (287) 
AAKJLRGGTJKAMG-UHFFFAOYSA-N

>  <initial_conformation_id>  (287) 
5

>  <minimize_method>  (287) 
MMFF

$$$$

     RDKit          3D

 52 54  0  0  0  0  0  0  0  0999 V2000
   -2.7812   -5.0494   -0.3525 C   0  0  0  0  0  0  0  0  0  0  0  0
   -3.2503   -4.6714    0.9362 O   0  0  0  0  0  0  0  0  0  0  0  0
   -3.2454   -3.2550    1.1415 C   0  0  0  0  0  0  0  0  0  0  0  0
   -1.8496   -2.7194    1.4674 C   0  0  0  0  0  0  0  0  0  0  0  0
   -1.9074   -1.3258    1.8045 O   0  0  0  0  0  0  0  0  0  0  0  0
   -1.4815   -0.5411    0.7664 C   0  0  0  0  0  0  0  0  0  0  0  0
   -0.1169   -0.3574    0.5625 C   0  0  0  0  0  0  0  0  0  0  0  0
    0.3458    0.4661   -0.4942 C   0  0  0  0  0  0  0  0  0  0  0  0
   -0.5881    1.1159   -1.3181 C   0  0  0  0  0  0  0  0  0  0  0  0
   -1.9443    0.9343   -1.0783 C   0  0  0  0  0  0  0  0  0  0  0  0
   -2.4019    0.1409   -0.0254 C   0  0  0  0  0  0  0  0  0  0  0  0
   -3.7335   -0.0514    0.2255 O   0  0  0  0  0  0  0  0  0  0  0  0
   -4.4952    1.1541    0.4001 C   0  0  0  0  0  0  0  0  0  0  0  0
   -4.1657    1.8860    1.7090 C   0  0  0  0  0  0  0  0  0  0  0  0
   -2.9649    2.6615    1.6331 O   0  0  0  0  0  0  0  0  0  0  0  0
   -3.1370    3.9132    0.9836 C   0  0  0  0  0  0  0  0  0  0  0  0
   -0.2297    1.9051   -2.3339 N   0  0  0  0  0  0  0  0  0  0  0  0
    1.0818    2.0695   -2.5310 C   0  0  0  0  0  0  0  0  0  0  0  0
    2.0630    1.5086   -1.8206 N   0  0  0  0  0  0  0  0  0  0  0  0
    1.7008    0.7008   -0.8073 C   0  0  0  0  0  0  0  0  0  0  0  0
    2.7050    0.0505   -0.0377 N   0  0  0  0  0  0  0  0  0  0  0  0
    4.0976    0.2933   -0.0132 C   0  0  0  0  0  0  0  0  0  0  0  0
    4.9550   -0.7340    0.4118 C   0  0  0  0  0  0  0  0  0  0  0  0
    6.3334   -0.5323    0.5112 C   0  0  0  0  0  0  0  0  0  0  0  0
    6.8761    0.7148    0.2127 C   0  0  0  0  0  0  0  0  0  0  0  0
    6.0379    1.7595   -0.1728 C   0  0  0  0  0  0  0  0  0  0  0  0
    4.6573    1.5511   -0.2709 C   0  0  0  0  0  0  0  0  0  0  0  0
    6.5916    3.0458   -0.4637 C   0  0  0  0  0  0  0  0  0  0  0  0
    7.0660    4.1206   -0.7168 C   0  0  0  0  0  0  0  0  0  0  0  0
   -1.7127   -4.8290   -0.4540 H   0  0  0  0  0  0  0  0  0  0  0  0
   -3.3479   -4.5430   -1.1427 H   0  0  0  0  0  0  0  0  0  0  0  0
   -2.9200   -6.1286   -0.4664 H   0  0  0  0  0  0  0  0  0  0  0  0
   -3.9119   -3.0470    1.9853 H   0  0  0  0  0  0  0  0  0  0  0  0
   -3.6836   -2.7448    0.2761 H   0  0  0  0  0  0  0  0  0  0  0  0
   -1.1457   -2.9294    0.6523 H   0  0  0  0  0  0  0  0  0  0  0  0
   -1.4531   -3.2495    2.3417 H   0  0  0  0  0  0  0  0  0  0  0  0
    0.5815   -0.8412    1.2406 H   0  0  0  0  0  0  0  0  0  0  0  0
   -2.6504    1.4270   -1.7417 H   0  0  0  0  0  0  0  0  0  0  0  0
   -4.4227    1.7971   -0.4801 H   0  0  0  0  0  0  0  0  0  0  0  0
   -5.5389    0.8251    0.4577 H   0  0  0  0  0  0  0  0  0  0  0  0
   -4.9986    2.5352    2.0032 H   0  0  0  0  0  0  0  0  0  0  0  0
   -4.0158    1.1532    2.5093 H   0  0  0  0  0  0  0  0  0  0  0  0
   -3.8661    4.5251    1.5224 H   0  0  0  0  0  0  0  0  0  0  0  0
   -2.1749    4.4336    0.9920 H   0  0  0  0  0  0  0  0  0  0  0  0
   -3.4501    3.7815   -0.0553 H   0  0  0  0  0  0  0  0  0  0  0  0
    1.3780    2.7191   -3.3477 H   0  0  0  0  0  0  0  0  0  0  0  0
    2.5031   -0.9430   -0.0090 H   0  0  0  0  0  0  0  0  0  0  0  0
    4.5537   -1.7117    0.6698 H   0  0  0  0  0  0  0  0  0  0  0  0
    6.9802   -1.3449    0.8284 H   0  0  0  0  0  0  0  0  0  0  0  0
    7.9486    0.8685    0.2890 H   0  0  0  0  0  0  0  0  0  0  0  0
    4.0177    2.3855   -0.5463 H   0  0  0  0  0  0  0  0  0  0  0  0
    7.4912    5.0695   -0.9477 H   0  0  0  0  0  0  0  0  0  0  0  0
  1  2  1  0
  2  3  1  0
  3  4  1  0
  4  5  1  0
  5  6  1  0
  6  7  2  0
  7  8  1  0
  8  9  2  0
  9 10  1  0
 10 11  2  0
 11 12  1  0
 12 13  1  0
 13 14  1  0
 14 15  1  0
 15 16  1  0
  9 17  1  0
 17 18  2  0
 18 19  1  0
 19 20  2  0
 20 21  1  0
 21 22  1  0
 22 23  2  0
 23 24  1  0
 24 25  2  0
 25 26  1  0
 26 27  2  0
 26 28  1  0
 28 29  3  0
 11  6  1  0
 20  8  1  0
 27 22  1  0
  1 30  1  0
  1 31  1  0
  1 32  1  0
  3 33  1  0
  3 34  1  0
  4 35  1  0
  4 36  1  0
  7 37  1  0
 10 38  1  0
 13 39  1  0
 13 40  1  0
 14 41  1  0
 14 42  1  0
 16 43  1  0
 16 44  1  0
 16 45  1  0
 18 46  1  0
 21 47  1  0
 23 48  1  0
 24 49  1  0
 25 50  1  0
 27 51  1  0
 29 52  1  0
M  END
>  <energy_abs>  (288) 
63.76938679578595

>  <SMILES>  (288) 
COCCOc1cc2c(cc1OCCOC)ncnc2Nc3cccc(c3)C#C

>  <cluster_no>  (288) 
288

>  <fda_drugs_id>  (288) 
AAKJLRGGTJKAMG-UHFFFAOYSA-N

>  <initial_conformation_id>  (288) 
4

>  <minimize_method>  (288) 
MMFF

$$$$

     RDKit          3D

 52 54  0  0  0  0  0  0  0  0999 V2000
   -1.5410   -4.4320    2.4656 C   0  0  0  0  0  0  0  0  0  0  0  0
   -2.4718   -4.0460    1.4664 O   0  0  0  0  0  0  0  0  0  0  0  0
   -1.8875   -3.8393    0.1773 C   0  0  0  0  0  0  0  0  0  0  0  0
   -1.0475   -2.5616    0.0762 C   0  0  0  0  0  0  0  0  0  0  0  0
   -1.9078   -1.4260    0.1736 O   0  0  0  0  0  0  0  0  0  0  0  0
   -1.3398   -0.1789    0.1801 C   0  0  0  0  0  0  0  0  0  0  0  0
    0.0215    0.0740    0.0038 C   0  0  0  0  0  0  0  0  0  0  0  0
    0.5316    1.3976    0.0384 C   0  0  0  0  0  0  0  0  0  0  0  0
   -0.3433    2.4646    0.2711 C   0  0  0  0  0  0  0  0  0  0  0  0
   -1.6976    2.2014    0.4314 C   0  0  0  0  0  0  0  0  0  0  0  0
   -2.2126    0.9011    0.3827 C   0  0  0  0  0  0  0  0  0  0  0  0
   -3.5412    0.5863    0.5168 O   0  0  0  0  0  0  0  0  0  0  0  0
   -4.4537    1.6372    0.8381 C   0  0  0  0  0  0  0  0  0  0  0  0
   -5.8618    1.0497    0.9829 C   0  0  0  0  0  0  0  0  0  0  0  0
   -6.4157    0.5814   -0.2509 O   0  0  0  0  0  0  0  0  0  0  0  0
   -6.8512    1.6202   -1.1145 C   0  0  0  0  0  0  0  0  0  0  0  0
    0.0686    3.7333    0.3430 N   0  0  0  0  0  0  0  0  0  0  0  0
    1.3790    3.9502    0.1904 C   0  0  0  0  0  0  0  0  0  0  0  0
    2.3094    3.0220   -0.0427 N   0  0  0  0  0  0  0  0  0  0  0  0
    1.8871    1.7485   -0.1327 C   0  0  0  0  0  0  0  0  0  0  0  0
    2.8243    0.7228   -0.4382 N   0  0  0  0  0  0  0  0  0  0  0  0
    4.2359    0.7786   -0.3798 C   0  0  0  0  0  0  0  0  0  0  0  0
    4.9232    1.5907    0.5305 C   0  0  0  0  0  0  0  0  0  0  0  0
    6.3186    1.5651    0.6113 C   0  0  0  0  0  0  0  0  0  0  0  0
    7.0496    0.7040   -0.2040 C   0  0  0  0  0  0  0  0  0  0  0  0
    6.3829   -0.1399   -1.0908 C   0  0  0  0  0  0  0  0  0  0  0  0
    4.9859   -0.1104   -1.1673 C   0  0  0  0  0  0  0  0  0  0  0  0
    7.1254   -1.0419   -1.9176 C   0  0  0  0  0  0  0  0  0  0  0  0
    7.7481   -1.7983   -2.6119 C   0  0  0  0  0  0  0  0  0  0  0  0
   -0.8851   -3.5988    2.7294 H   0  0  0  0  0  0  0  0  0  0  0  0
   -0.9491   -5.2919    2.1383 H   0  0  0  0  0  0  0  0  0  0  0  0
   -2.1004   -4.7184    3.3601 H   0  0  0  0  0  0  0  0  0  0  0  0
   -2.7212   -3.7779   -0.5303 H   0  0  0  0  0  0  0  0  0  0  0  0
   -1.2870   -4.7155   -0.0915 H   0  0  0  0  0  0  0  0  0  0  0  0
   -0.3001   -2.5351    0.8753 H   0  0  0  0  0  0  0  0  0  0  0  0
   -0.5493   -2.5523   -0.9003 H   0  0  0  0  0  0  0  0  0  0  0  0
    0.7169   -0.7444   -0.1465 H   0  0  0  0  0  0  0  0  0  0  0  0
   -2.3458    3.0566    0.5951 H   0  0  0  0  0  0  0  0  0  0  0  0
   -4.4385    2.3959    0.0499 H   0  0  0  0  0  0  0  0  0  0  0  0
   -4.1663    2.0862    1.7960 H   0  0  0  0  0  0  0  0  0  0  0  0
   -5.8220    0.1815    1.6496 H   0  0  0  0  0  0  0  0  0  0  0  0
   -6.5412    1.7836    1.4308 H   0  0  0  0  0  0  0  0  0  0  0  0
   -7.5589    2.2804   -0.6038 H   0  0  0  0  0  0  0  0  0  0  0  0
   -6.0029    2.1952   -1.4946 H   0  0  0  0  0  0  0  0  0  0  0  0
   -7.3598    1.1626   -1.9677 H   0  0  0  0  0  0  0  0  0  0  0  0
    1.7181    4.9782    0.2580 H   0  0  0  0  0  0  0  0  0  0  0  0
    2.5098    0.2417   -1.2749 H   0  0  0  0  0  0  0  0  0  0  0  0
    4.3776    2.2543    1.1963 H   0  0  0  0  0  0  0  0  0  0  0  0
    6.8306    2.2139    1.3170 H   0  0  0  0  0  0  0  0  0  0  0  0
    8.1343    0.6887   -0.1353 H   0  0  0  0  0  0  0  0  0  0  0  0
    4.4826   -0.7865   -1.8539 H   0  0  0  0  0  0  0  0  0  0  0  0
    8.3026   -2.4694   -3.2254 H   0  0  0  0  0  0  0  0  0  0  0  0
  1  2  1  0
  2  3  1  0
  3  4  1  0
  4  5  1  0
  5  6  1  0
  6  7  2  0
  7  8  1  0
  8  9  2  0
  9 10  1  0
 10 11  2  0
 11 12  1  0
 12 13  1  0
 13 14  1  0
 14 15  1  0
 15 16  1  0
  9 17  1  0
 17 18  2  0
 18 19  1  0
 19 20  2  0
 20 21  1  0
 21 22  1  0
 22 23  2  0
 23 24  1  0
 24 25  2  0
 25 26  1  0
 26 27  2  0
 26 28  1  0
 28 29  3  0
 11  6  1  0
 20  8  1  0
 27 22  1  0
  1 30  1  0
  1 31  1  0
  1 32  1  0
  3 33  1  0
  3 34  1  0
  4 35  1  0
  4 36  1  0
  7 37  1  0
 10 38  1  0
 13 39  1  0
 13 40  1  0
 14 41  1  0
 14 42  1  0
 16 43  1  0
 16 44  1  0
 16 45  1  0
 18 46  1  0
 21 47  1  0
 23 48  1  0
 24 49  1  0
 25 50  1  0
 27 51  1  0
 29 52  1  0
M  END
>  <energy_abs>  (289) 
64.33220634272128

>  <SMILES>  (289) 
COCCOc1cc2c(cc1OCCOC)ncnc2Nc3cccc(c3)C#C

>  <cluster_no>  (289) 
289

>  <fda_drugs_id>  (289) 
AAKJLRGGTJKAMG-UHFFFAOYSA-N

>  <initial_conformation_id>  (289) 
2

>  <minimize_method>  (289) 
MMFF

$$$$

     RDKit          3D

 52 54  0  0  0  0  0  0  0  0999 V2000
    1.6028   -3.8185   -0.0635 C   0  0  0  0  0  0  0  0  0  0  0  0
    0.7040   -3.2045    0.8544 O   0  0  0  0  0  0  0  0  0  0  0  0
   -0.6453   -3.6685    0.7028 C   0  0  0  0  0  0  0  0  0  0  0  0
   -1.4087   -2.9098   -0.3913 C   0  0  0  0  0  0  0  0  0  0  0  0
   -2.1857   -1.8394    0.1584 O   0  0  0  0  0  0  0  0  0  0  0  0
   -1.6747   -0.5704    0.1836 C   0  0  0  0  0  0  0  0  0  0  0  0
   -0.3261   -0.2584    0.0346 C   0  0  0  0  0  0  0  0  0  0  0  0
    0.1352    1.0785    0.1166 C   0  0  0  0  0  0  0  0  0  0  0  0
   -0.7870    2.1108    0.3127 C   0  0  0  0  0  0  0  0  0  0  0  0
   -2.1310    1.7901    0.4606 C   0  0  0  0  0  0  0  0  0  0  0  0
   -2.5896    0.4682    0.4164 C   0  0  0  0  0  0  0  0  0  0  0  0
   -3.9016    0.0913    0.5553 O   0  0  0  0  0  0  0  0  0  0  0  0
   -4.8598    1.0535    0.9920 C   0  0  0  0  0  0  0  0  0  0  0  0
   -5.5089    1.7622   -0.1973 C   0  0  0  0  0  0  0  0  0  0  0  0
   -6.4775    2.7252    0.2190 O   0  0  0  0  0  0  0  0  0  0  0  0
   -5.9005    3.9794    0.5591 C   0  0  0  0  0  0  0  0  0  0  0  0
   -0.4285    3.3964    0.3669 N   0  0  0  0  0  0  0  0  0  0  0  0
    0.8749    3.6621    0.2251 C   0  0  0  0  0  0  0  0  0  0  0  0
    1.8493    2.7664    0.0488 N   0  0  0  0  0  0  0  0  0  0  0  0
    1.4847    1.4726    0.0101 C   0  0  0  0  0  0  0  0  0  0  0  0
    2.4784    0.4633   -0.1244 N   0  0  0  0  0  0  0  0  0  0  0  0
    3.8396    0.5987   -0.4773 C   0  0  0  0  0  0  0  0  0  0  0  0
    4.3121    1.6278   -1.3005 C   0  0  0  0  0  0  0  0  0  0  0  0
    5.6549    1.6865   -1.6861 C   0  0  0  0  0  0  0  0  0  0  0  0
    6.5440    0.6967   -1.2729 C   0  0  0  0  0  0  0  0  0  0  0  0
    6.0865   -0.3569   -0.4832 C   0  0  0  0  0  0  0  0  0  0  0  0
    4.7417   -0.4097   -0.0993 C   0  0  0  0  0  0  0  0  0  0  0  0
    6.9890   -1.3877   -0.0698 C   0  0  0  0  0  0  0  0  0  0  0  0
    7.7467   -2.2516    0.2788 C   0  0  0  0  0  0  0  0  0  0  0  0
    1.6549   -4.8965    0.1183 H   0  0  0  0  0  0  0  0  0  0  0  0
    2.5968   -3.3913    0.0949 H   0  0  0  0  0  0  0  0  0  0  0  0
    1.3027   -3.6246   -1.0973 H   0  0  0  0  0  0  0  0  0  0  0  0
   -0.6332   -4.7434    0.4857 H   0  0  0  0  0  0  0  0  0  0  0  0
   -1.1392   -3.5296    1.6707 H   0  0  0  0  0  0  0  0  0  0  0  0
   -0.7788   -2.5760   -1.2227 H   0  0  0  0  0  0  0  0  0  0  0  0
   -2.1471   -3.5979   -0.8192 H   0  0  0  0  0  0  0  0  0  0  0  0
    0.3995   -1.0413   -0.1445 H   0  0  0  0  0  0  0  0  0  0  0  0
   -2.8140    2.6198    0.6083 H   0  0  0  0  0  0  0  0  0  0  0  0
   -4.4514    1.7420    1.7401 H   0  0  0  0  0  0  0  0  0  0  0  0
   -5.6419    0.5017    1.5283 H   0  0  0  0  0  0  0  0  0  0  0  0
   -4.7669    2.2205   -0.8614 H   0  0  0  0  0  0  0  0  0  0  0  0
   -6.0319    1.0157   -0.8064 H   0  0  0  0  0  0  0  0  0  0  0  0
   -5.2185    3.8804    1.4081 H   0  0  0  0  0  0  0  0  0  0  0  0
   -6.7075    4.6612    0.8419 H   0  0  0  0  0  0  0  0  0  0  0  0
   -5.3733    4.4040   -0.3007 H   0  0  0  0  0  0  0  0  0  0  0  0
    1.1698    4.7053    0.2603 H   0  0  0  0  0  0  0  0  0  0  0  0
    2.3542   -0.2158    0.6221 H   0  0  0  0  0  0  0  0  0  0  0  0
    3.6363    2.3994   -1.6602 H   0  0  0  0  0  0  0  0  0  0  0  0
    6.0007    2.5030   -2.3147 H   0  0  0  0  0  0  0  0  0  0  0  0
    7.5863    0.7480   -1.5772 H   0  0  0  0  0  0  0  0  0  0  0  0
    4.3990   -1.2452    0.5064 H   0  0  0  0  0  0  0  0  0  0  0  0
    8.4204   -3.0156    0.5894 H   0  0  0  0  0  0  0  0  0  0  0  0
  1  2  1  0
  2  3  1  0
  3  4  1  0
  4  5  1  0
  5  6  1  0
  6  7  2  0
  7  8  1  0
  8  9  2  0
  9 10  1  0
 10 11  2  0
 11 12  1  0
 12 13  1  0
 13 14  1  0
 14 15  1  0
 15 16  1  0
  9 17  1  0
 17 18  2  0
 18 19  1  0
 19 20  2  0
 20 21  1  0
 21 22  1  0
 22 23  2  0
 23 24  1  0
 24 25  2  0
 25 26  1  0
 26 27  2  0
 26 28  1  0
 28 29  3  0
 11  6  1  0
 20  8  1  0
 27 22  1  0
  1 30  1  0
  1 31  1  0
  1 32  1  0
  3 33  1  0
  3 34  1  0
  4 35  1  0
  4 36  1  0
  7 37  1  0
 10 38  1  0
 13 39  1  0
 13 40  1  0
 14 41  1  0
 14 42  1  0
 16 43  1  0
 16 44  1  0
 16 45  1  0
 18 46  1  0
 21 47  1  0
 23 48  1  0
 24 49  1  0
 25 50  1  0
 27 51  1  0
 29 52  1  0
M  END
>  <energy_abs>  (290) 
62.54563433808574

>  <SMILES>  (290) 
COCCOc1cc2c(cc1OCCOC)ncnc2Nc3cccc(c3)C#C

>  <cluster_no>  (290) 
290

>  <fda_drugs_id>  (290) 
AAKJLRGGTJKAMG-UHFFFAOYSA-N

>  <initial_conformation_id>  (290) 
1

>  <minimize_method>  (290) 
MMFF

$$$$

     RDKit          3D

 52 54  0  0  0  0  0  0  0  0999 V2000
   -1.3557   -5.5646   -0.3810 C   0  0  0  0  0  0  0  0  0  0  0  0
   -0.4779   -4.4689   -0.1563 O   0  0  0  0  0  0  0  0  0  0  0  0
   -1.1323   -3.3410    0.4256 C   0  0  0  0  0  0  0  0  0  0  0  0
   -1.8194   -2.4807   -0.6352 C   0  0  0  0  0  0  0  0  0  0  0  0
   -2.4035   -1.3118   -0.0642 O   0  0  0  0  0  0  0  0  0  0  0  0
   -1.6483   -0.1801    0.0643 C   0  0  0  0  0  0  0  0  0  0  0  0
   -0.2904   -0.0666   -0.2292 C   0  0  0  0  0  0  0  0  0  0  0  0
    0.4069    1.1602   -0.0362 C   0  0  0  0  0  0  0  0  0  0  0  0
   -0.2752    2.2704    0.4816 C   0  0  0  0  0  0  0  0  0  0  0  0
   -1.6233    2.1470    0.7732 C   0  0  0  0  0  0  0  0  0  0  0  0
   -2.3080    0.9507    0.5520 C   0  0  0  0  0  0  0  0  0  0  0  0
   -3.6330    0.9037    0.9085 O   0  0  0  0  0  0  0  0  0  0  0  0
   -4.4689    1.1148   -0.2417 C   0  0  0  0  0  0  0  0  0  0  0  0
   -5.9360    1.0594    0.1909 C   0  0  0  0  0  0  0  0  0  0  0  0
   -6.4163    2.3039    0.7125 O   0  0  0  0  0  0  0  0  0  0  0  0
   -5.9018    2.6134    2.0011 C   0  0  0  0  0  0  0  0  0  0  0  0
    0.3179    3.4442    0.7108 N   0  0  0  0  0  0  0  0  0  0  0  0
    1.6221    3.5225    0.4303 C   0  0  0  0  0  0  0  0  0  0  0  0
    2.3798    2.5437   -0.0685 N   0  0  0  0  0  0  0  0  0  0  0  0
    1.7756    1.3665   -0.3091 C   0  0  0  0  0  0  0  0  0  0  0  0
    2.5292    0.3006   -0.8728 N   0  0  0  0  0  0  0  0  0  0  0  0
    3.9342    0.1740   -0.9724 C   0  0  0  0  0  0  0  0  0  0  0  0
    4.4711   -0.6711   -1.9572 C   0  0  0  0  0  0  0  0  0  0  0  0
    5.8492   -0.8822   -2.0562 C   0  0  0  0  0  0  0  0  0  0  0  0
    6.7130   -0.2693   -1.1518 C   0  0  0  0  0  0  0  0  0  0  0  0
    6.1965    0.5428   -0.1427 C   0  0  0  0  0  0  0  0  0  0  0  0
    4.8155    0.7504   -0.0486 C   0  0  0  0  0  0  0  0  0  0  0  0
    7.0789    1.1547    0.8036 C   0  0  0  0  0  0  0  0  0  0  0  0
    7.8188    1.6677    1.5981 C   0  0  0  0  0  0  0  0  0  0  0  0
   -2.1370   -5.2993   -1.0982 H   0  0  0  0  0  0  0  0  0  0  0  0
   -1.8037   -5.8969    0.5604 H   0  0  0  0  0  0  0  0  0  0  0  0
   -0.7719   -6.3901   -0.7972 H   0  0  0  0  0  0  0  0  0  0  0  0
   -1.8406   -3.6512    1.2038 H   0  0  0  0  0  0  0  0  0  0  0  0
   -0.3627   -2.7549    0.9382 H   0  0  0  0  0  0  0  0  0  0  0  0
   -1.1623   -2.2563   -1.4839 H   0  0  0  0  0  0  0  0  0  0  0  0
   -2.6458   -3.0525   -1.0727 H   0  0  0  0  0  0  0  0  0  0  0  0
    0.2720   -0.9250   -0.5822 H   0  0  0  0  0  0  0  0  0  0  0  0
   -2.1570    2.9999    1.1851 H   0  0  0  0  0  0  0  0  0  0  0  0
   -4.2912    0.3189   -0.9743 H   0  0  0  0  0  0  0  0  0  0  0  0
   -4.2463    2.0897   -0.6926 H   0  0  0  0  0  0  0  0  0  0  0  0
   -6.5502    0.8530   -0.6918 H   0  0  0  0  0  0  0  0  0  0  0  0
   -6.1155    0.2603    0.9193 H   0  0  0  0  0  0  0  0  0  0  0  0
   -4.8522    2.9100    1.9356 H   0  0  0  0  0  0  0  0  0  0  0  0
   -6.4658    3.4632    2.3958 H   0  0  0  0  0  0  0  0  0  0  0  0
   -6.0217    1.7698    2.6874 H   0  0  0  0  0  0  0  0  0  0  0  0
    2.1107    4.4713    0.6233 H   0  0  0  0  0  0  0  0  0  0  0  0
    2.0706   -0.0109   -1.7224 H   0  0  0  0  0  0  0  0  0  0  0  0
    3.8182   -1.1754   -2.6649 H   0  0  0  0  0  0  0  0  0  0  0  0
    6.2463   -1.5295   -2.8336 H   0  0  0  0  0  0  0  0  0  0  0  0
    7.7842   -0.4371   -1.2300 H   0  0  0  0  0  0  0  0  0  0  0  0
    4.4306    1.3643    0.7615 H   0  0  0  0  0  0  0  0  0  0  0  0
    8.4726    2.1240    2.3040 H   0  0  0  0  0  0  0  0  0  0  0  0
  1  2  1  0
  2  3  1  0
  3  4  1  0
  4  5  1  0
  5  6  1  0
  6  7  2  0
  7  8  1  0
  8  9  2  0
  9 10  1  0
 10 11  2  0
 11 12  1  0
 12 13  1  0
 13 14  1  0
 14 15  1  0
 15 16  1  0
  9 17  1  0
 17 18  2  0
 18 19  1  0
 19 20  2  0
 20 21  1  0
 21 22  1  0
 22 23  2  0
 23 24  1  0
 24 25  2  0
 25 26  1  0
 26 27  2  0
 26 28  1  0
 28 29  3  0
 11  6  1  0
 20  8  1  0
 27 22  1  0
  1 30  1  0
  1 31  1  0
  1 32  1  0
  3 33  1  0
  3 34  1  0
  4 35  1  0
  4 36  1  0
  7 37  1  0
 10 38  1  0
 13 39  1  0
 13 40  1  0
 14 41  1  0
 14 42  1  0
 16 43  1  0
 16 44  1  0
 16 45  1  0
 18 46  1  0
 21 47  1  0
 23 48  1  0
 24 49  1  0
 25 50  1  0
 27 51  1  0
 29 52  1  0
M  END
>  <energy_abs>  (291) 
60.45296596343139

>  <SMILES>  (291) 
COCCOc1cc2c(cc1OCCOC)ncnc2Nc3cccc(c3)C#C

>  <cluster_no>  (291) 
291

>  <fda_drugs_id>  (291) 
AAKJLRGGTJKAMG-UHFFFAOYSA-N

>  <initial_conformation_id>  (291) 
0

>  <minimize_method>  (291) 
MMFF

$$$$
