
     RDKit          3D

 52 55  0  0  0  0  0  0  0  0999 V2000
    3.9844   -1.8040    3.9327 C   0  0  0  0  0  0  0  0  0  0  0  0
    2.9434   -1.5337    2.8428 C   0  0  2  0  0  0  0  0  0  0  0  0
    3.3241   -2.2125    1.5297 C   0  0  0  0  0  0  0  0  0  0  0  0
    2.6526   -3.3860    1.1140 C   0  0  0  0  0  0  0  0  0  0  0  0
    2.9577   -4.0129   -0.1013 C   0  0  0  0  0  0  0  0  0  0  0  0
    3.9434   -3.4930   -0.9295 C   0  0  0  0  0  0  0  0  0  0  0  0
    4.6325   -2.3571   -0.5306 C   0  0  0  0  0  0  0  0  0  0  0  0
    4.3423   -1.7199    0.6822 C   0  0  0  0  0  0  0  0  0  0  0  0
    5.2838   -0.3184    1.0632 Cl  0  0  0  0  0  0  0  0  0  0  0  0
    5.5873   -1.8797   -1.3434 F   0  0  0  0  0  0  0  0  0  0  0  0
    1.4192   -4.1411    2.0654 Cl  0  0  0  0  0  0  0  0  0  0  0  0
    2.7946   -0.1030    2.7066 O   0  0  0  0  0  0  0  0  0  0  0  0
    1.5255    0.2440    2.3184 C   0  0  0  0  0  0  0  0  0  0  0  0
    1.2456    0.3894    0.9605 C   0  0  0  0  0  0  0  0  0  0  0  0
   -0.0319    0.7792    0.5570 C   0  0  0  0  0  0  0  0  0  0  0  0
   -0.9619    1.0116    1.5676 C   0  0  0  0  0  0  0  0  0  0  0  0
   -0.7027    0.9086    2.8971 N   0  0  0  0  0  0  0  0  0  0  0  0
    0.5385    0.5486    3.2626 C   0  0  0  0  0  0  0  0  0  0  0  0
    0.8214    0.5112    4.6364 N   0  0  0  0  0  0  0  0  0  0  0  0
   -0.3530    0.9342   -0.8500 C   0  0  0  0  0  0  0  0  0  0  0  0
    0.2733    0.4044   -2.0020 C   0  0  0  0  0  0  0  0  0  0  0  0
   -0.3057    0.8010   -3.1364 N   0  0  0  0  0  0  0  0  0  0  0  0
   -1.3009    1.6077   -2.7226 N   0  0  0  0  0  0  0  0  0  0  0  0
   -1.3813    1.7010   -1.3596 C   0  0  0  0  0  0  0  0  0  0  0  0
   -2.1474    2.2606   -3.7139 C   0  0  0  0  0  0  0  0  0  0  0  0
   -2.2214    3.7800   -3.5172 C   0  0  0  0  0  0  0  0  0  0  0  0
   -3.1424    4.4080   -4.5582 C   0  0  0  0  0  0  0  0  0  0  0  0
   -4.4731    3.7996   -4.5475 N   0  0  0  0  0  0  0  0  0  0  0  0
   -4.4130    2.3575   -4.7861 C   0  0  0  0  0  0  0  0  0  0  0  0
   -3.5503    1.6471   -3.7489 C   0  0  0  0  0  0  0  0  0  0  0  0
    4.9415   -1.3184    3.7265 H   0  0  0  0  0  0  0  0  0  0  0  0
    3.6383   -1.4008    4.8892 H   0  0  0  0  0  0  0  0  0  0  0  0
    4.1606   -2.8767    4.0557 H   0  0  0  0  0  0  0  0  0  0  0  0
    1.9999   -1.9340    3.2306 H   0  0  0  0  0  0  0  0  0  0  0  0
    2.4223   -4.9098   -0.4088 H   0  0  0  0  0  0  0  0  0  0  0  0
    4.1842   -3.9658   -1.8769 H   0  0  0  0  0  0  0  0  0  0  0  0
    2.0332    0.2238    0.2334 H   0  0  0  0  0  0  0  0  0  0  0  0
   -1.9869    1.2997    1.3447 H   0  0  0  0  0  0  0  0  0  0  0  0
    1.1241   -0.4209    4.8947 H   0  0  0  0  0  0  0  0  0  0  0  0
    1.6067    1.1365    4.8107 H   0  0  0  0  0  0  0  0  0  0  0  0
    1.1285   -0.2563   -2.0636 H   0  0  0  0  0  0  0  0  0  0  0  0
   -2.1356    2.3118   -0.8839 H   0  0  0  0  0  0  0  0  0  0  0  0
   -1.6697    2.0753   -4.6871 H   0  0  0  0  0  0  0  0  0  0  0  0
   -1.2199    4.2201   -3.5977 H   0  0  0  0  0  0  0  0  0  0  0  0
   -2.5924    4.0252   -2.5137 H   0  0  0  0  0  0  0  0  0  0  0  0
   -3.2427    5.4803   -4.3542 H   0  0  0  0  0  0  0  0  0  0  0  0
   -2.7018    4.3227   -5.5600 H   0  0  0  0  0  0  0  0  0  0  0  0
   -4.9269    3.9805   -3.6504 H   0  0  0  0  0  0  0  0  0  0  0  0
   -5.4297    1.9498   -4.7570 H   0  0  0  0  0  0  0  0  0  0  0  0
   -4.0301    2.1653   -5.7961 H   0  0  0  0  0  0  0  0  0  0  0  0
   -3.4910    0.5799   -3.9910 H   0  0  0  0  0  0  0  0  0  0  0  0
   -4.0254    1.7177   -2.7629 H   0  0  0  0  0  0  0  0  0  0  0  0
  1  2  1  0
  2  3  1  0
  3  4  2  0
  4  5  1  0
  5  6  2  0
  6  7  1  0
  7  8  2  0
  8  9  1  0
  7 10  1  0
  4 11  1  0
  2 12  1  0
 12 13  1  0
 13 14  2  0
 14 15  1  0
 15 16  2  0
 16 17  1  0
 17 18  2  0
 18 19  1  0
 15 20  1  0
 20 21  1  0
 21 22  2  0
 22 23  1  0
 23 24  1  0
 23 25  1  0
 25 26  1  0
 26 27  1  0
 27 28  1  0
 28 29  1  0
 29 30  1  0
  8  3  1  0
 18 13  1  0
 24 20  2  0
 30 25  1  0
  1 31  1  0
  1 32  1  0
  1 33  1  0
  2 34  1  1
  5 35  1  0
  6 36  1  0
 14 37  1  0
 16 38  1  0
 19 39  1  0
 19 40  1  0
 21 41  1  0
 24 42  1  0
 25 43  1  0
 26 44  1  0
 26 45  1  0
 27 46  1  0
 27 47  1  0
 28 48  1  0
 29 49  1  0
 29 50  1  0
 30 51  1  0
 30 52  1  0
M  END
>  <energy_abs>  (1) 
35.384179601451294

>  <SMILES>  (1) 
C[C@H](c1c(ccc(c1Cl)F)Cl)Oc2cc(cnc2N)c3cnn(c3)C4CCNCC4

>  <cluster_no>  (1) 
1

>  <fda_drugs_id>  (1) 
KTEIFNKAUNYNJU-GFCCVEGCSA-N

>  <initial_conformation_id>  (1) 
291

>  <minimize_method>  (1) 
MMFF

$$$$

     RDKit          3D

 52 55  0  0  0  0  0  0  0  0999 V2000
    2.6384   -2.5127   -0.7853 C   0  0  0  0  0  0  0  0  0  0  0  0
    3.0845   -1.4297    0.2005 C   0  0  2  0  0  0  0  0  0  0  0  0
    4.5530   -1.6252    0.5799 C   0  0  0  0  0  0  0  0  0  0  0  0
    5.5572   -0.8329   -0.0265 C   0  0  0  0  0  0  0  0  0  0  0  0
    6.9114   -0.9813    0.3064 C   0  0  0  0  0  0  0  0  0  0  0  0
    7.3031   -1.9306    1.2417 C   0  0  0  0  0  0  0  0  0  0  0  0
    6.3403   -2.7363    1.8309 C   0  0  0  0  0  0  0  0  0  0  0  0
    4.9816   -2.6025    1.5099 C   0  0  0  0  0  0  0  0  0  0  0  0
    3.8947   -3.7067    2.2892 Cl  0  0  0  0  0  0  0  0  0  0  0  0
    6.7457   -3.6590    2.7168 F   0  0  0  0  0  0  0  0  0  0  0  0
    5.2051    0.3556   -1.2376 Cl  0  0  0  0  0  0  0  0  0  0  0  0
    2.2893   -1.4447    1.3907 O   0  0  0  0  0  0  0  0  0  0  0  0
    1.0460   -0.8719    1.4120 C   0  0  0  0  0  0  0  0  0  0  0  0
    0.4462   -0.1618    0.3711 C   0  0  0  0  0  0  0  0  0  0  0  0
   -0.8381    0.3692    0.5372 C   0  0  0  0  0  0  0  0  0  0  0  0
   -1.4576    0.1599    1.7647 C   0  0  0  0  0  0  0  0  0  0  0  0
   -0.9062   -0.5223    2.7948 N   0  0  0  0  0  0  0  0  0  0  0  0
    0.3259   -1.0269    2.6117 C   0  0  0  0  0  0  0  0  0  0  0  0
    0.8952   -1.7369    3.6873 N   0  0  0  0  0  0  0  0  0  0  0  0
   -1.4816    1.1109   -0.5307 C   0  0  0  0  0  0  0  0  0  0  0  0
   -0.9351    1.8806   -1.5819 C   0  0  0  0  0  0  0  0  0  0  0  0
   -1.8683    2.3981   -2.3828 N   0  0  0  0  0  0  0  0  0  0  0  0
   -3.0257    1.9676   -1.8524 N   0  0  0  0  0  0  0  0  0  0  0  0
   -2.8432    1.1888   -0.7398 C   0  0  0  0  0  0  0  0  0  0  0  0
   -4.3105    2.3253   -2.4497 C   0  0  0  0  0  0  0  0  0  0  0  0
   -4.6184    3.8242   -2.3325 C   0  0  0  0  0  0  0  0  0  0  0  0
   -3.9896    4.6479   -3.4534 C   0  0  0  0  0  0  0  0  0  0  0  0
   -4.3452    4.1205   -4.7709 N   0  0  0  0  0  0  0  0  0  0  0  0
   -3.8492    2.7525   -4.9237 C   0  0  0  0  0  0  0  0  0  0  0  0
   -4.4638    1.8131   -3.8887 C   0  0  0  0  0  0  0  0  0  0  0  0
    2.6772   -3.5122   -0.3409 H   0  0  0  0  0  0  0  0  0  0  0  0
    3.2660   -2.5150   -1.6827 H   0  0  0  0  0  0  0  0  0  0  0  0
    1.6008   -2.3604   -1.0975 H   0  0  0  0  0  0  0  0  0  0  0  0
    2.9749   -0.4471   -0.2612 H   0  0  0  0  0  0  0  0  0  0  0  0
    7.6674   -0.3583   -0.1682 H   0  0  0  0  0  0  0  0  0  0  0  0
    8.3483   -2.0561    1.5074 H   0  0  0  0  0  0  0  0  0  0  0  0
    0.9480   -0.0225   -0.5790 H   0  0  0  0  0  0  0  0  0  0  0  0
   -2.4473    0.5534    1.9795 H   0  0  0  0  0  0  0  0  0  0  0  0
    1.1435   -2.6634    3.3464 H   0  0  0  0  0  0  0  0  0  0  0  0
    1.7786   -1.2891    3.9164 H   0  0  0  0  0  0  0  0  0  0  0  0
    0.1045    2.0916   -1.7973 H   0  0  0  0  0  0  0  0  0  0  0  0
   -3.6848    0.7593   -0.2137 H   0  0  0  0  0  0  0  0  0  0  0  0
   -5.0528    1.7935   -1.8379 H   0  0  0  0  0  0  0  0  0  0  0  0
   -5.7080    3.9573   -2.3762 H   0  0  0  0  0  0  0  0  0  0  0  0
   -4.2953    4.2154   -1.3601 H   0  0  0  0  0  0  0  0  0  0  0  0
   -4.3506    5.6803   -3.3836 H   0  0  0  0  0  0  0  0  0  0  0  0
   -2.9006    4.7009   -3.3468 H   0  0  0  0  0  0  0  0  0  0  0  0
   -5.3572    4.1381   -4.8908 H   0  0  0  0  0  0  0  0  0  0  0  0
   -4.1113    2.3980   -5.9272 H   0  0  0  0  0  0  0  0  0  0  0  0
   -2.7550    2.7390   -4.8764 H   0  0  0  0  0  0  0  0  0  0  0  0
   -5.5359    1.7153   -4.1072 H   0  0  0  0  0  0  0  0  0  0  0  0
   -4.0312    0.8110   -3.9955 H   0  0  0  0  0  0  0  0  0  0  0  0
  1  2  1  0
  2  3  1  0
  3  4  2  0
  4  5  1  0
  5  6  2  0
  6  7  1  0
  7  8  2  0
  8  9  1  0
  7 10  1  0
  4 11  1  0
  2 12  1  0
 12 13  1  0
 13 14  2  0
 14 15  1  0
 15 16  2  0
 16 17  1  0
 17 18  2  0
 18 19  1  0
 15 20  1  0
 20 21  1  0
 21 22  2  0
 22 23  1  0
 23 24  1  0
 23 25  1  0
 25 26  1  0
 26 27  1  0
 27 28  1  0
 28 29  1  0
 29 30  1  0
  8  3  1  0
 18 13  1  0
 24 20  2  0
 30 25  1  0
  1 31  1  0
  1 32  1  0
  1 33  1  0
  2 34  1  6
  5 35  1  0
  6 36  1  0
 14 37  1  0
 16 38  1  0
 19 39  1  0
 19 40  1  0
 21 41  1  0
 24 42  1  0
 25 43  1  0
 26 44  1  0
 26 45  1  0
 27 46  1  0
 27 47  1  0
 28 48  1  0
 29 49  1  0
 29 50  1  0
 30 51  1  0
 30 52  1  0
M  END
>  <energy_abs>  (2) 
34.65350623499085

>  <SMILES>  (2) 
C[C@H](c1c(ccc(c1Cl)F)Cl)Oc2cc(cnc2N)c3cnn(c3)C4CCNCC4

>  <cluster_no>  (2) 
2

>  <fda_drugs_id>  (2) 
KTEIFNKAUNYNJU-GFCCVEGCSA-N

>  <initial_conformation_id>  (2) 
269

>  <minimize_method>  (2) 
MMFF

$$$$

     RDKit          3D

 52 55  0  0  0  0  0  0  0  0999 V2000
    2.1016   -2.5605    1.4100 C   0  0  0  0  0  0  0  0  0  0  0  0
    3.0446   -1.5311    0.7814 C   0  0  2  0  0  0  0  0  0  0  0  0
    4.5006   -1.9654    0.9544 C   0  0  0  0  0  0  0  0  0  0  0  0
    5.1988   -2.5633   -0.1224 C   0  0  0  0  0  0  0  0  0  0  0  0
    6.5369   -2.9644    0.0015 C   0  0  0  0  0  0  0  0  0  0  0  0
    7.2114   -2.7922    1.2033 C   0  0  0  0  0  0  0  0  0  0  0  0
    6.5407   -2.2324    2.2809 C   0  0  0  0  0  0  0  0  0  0  0  0
    5.2029   -1.8251    2.1754 C   0  0  0  0  0  0  0  0  0  0  0  0
    4.4808   -1.1744    3.6112 Cl  0  0  0  0  0  0  0  0  0  0  0  0
    7.2081   -2.0939    3.4367 F   0  0  0  0  0  0  0  0  0  0  0  0
    4.4602   -2.8690   -1.6600 Cl  0  0  0  0  0  0  0  0  0  0  0  0
    2.8718   -0.2357    1.3658 O   0  0  0  0  0  0  0  0  0  0  0  0
    1.8261    0.5673    0.9968 C   0  0  0  0  0  0  0  0  0  0  0  0
    0.8963    0.3021   -0.0094 C   0  0  0  0  0  0  0  0  0  0  0  0
   -0.1243    1.2214   -0.2787 C   0  0  0  0  0  0  0  0  0  0  0  0
   -0.1506    2.3812    0.4889 C   0  0  0  0  0  0  0  0  0  0  0  0
    0.7333    2.6707    1.4714 N   0  0  0  0  0  0  0  0  0  0  0  0
    1.7020    1.7717    1.7148 C   0  0  0  0  0  0  0  0  0  0  0  0
    2.6215    2.0793    2.7374 N   0  0  0  0  0  0  0  0  0  0  0  0
   -1.1015    0.9665   -1.3212 C   0  0  0  0  0  0  0  0  0  0  0  0
   -1.0186    0.1834   -2.4954 C   0  0  0  0  0  0  0  0  0  0  0  0
   -2.1507    0.1870   -3.2020 N   0  0  0  0  0  0  0  0  0  0  0  0
   -2.9723    0.9773   -2.4868 N   0  0  0  0  0  0  0  0  0  0  0  0
   -2.3875    1.4668   -1.3503 C   0  0  0  0  0  0  0  0  0  0  0  0
   -4.3253    1.2256   -2.9693 C   0  0  0  0  0  0  0  0  0  0  0  0
   -4.5348    2.6974   -3.3421 C   0  0  0  0  0  0  0  0  0  0  0  0
   -5.9663    2.9274   -3.8148 C   0  0  0  0  0  0  0  0  0  0  0  0
   -6.9433    2.4875   -2.8186 N   0  0  0  0  0  0  0  0  0  0  0  0
   -6.7869    1.0683   -2.4996 C   0  0  0  0  0  0  0  0  0  0  0  0
   -5.3905    0.7590   -1.9703 C   0  0  0  0  0  0  0  0  0  0  0  0
    1.0540   -2.2879    1.2480 H   0  0  0  0  0  0  0  0  0  0  0  0
    2.2324   -2.6284    2.4946 H   0  0  0  0  0  0  0  0  0  0  0  0
    2.2618   -3.5565    0.9840 H   0  0  0  0  0  0  0  0  0  0  0  0
    2.8329   -1.4464   -0.2857 H   0  0  0  0  0  0  0  0  0  0  0  0
    7.0576   -3.4161   -0.8413 H   0  0  0  0  0  0  0  0  0  0  0  0
    8.2476   -3.0984    1.3118 H   0  0  0  0  0  0  0  0  0  0  0  0
    0.9365   -0.6146   -0.5852 H   0  0  0  0  0  0  0  0  0  0  0  0
   -0.8995    3.1528    0.3335 H   0  0  0  0  0  0  0  0  0  0  0  0
    3.5514    2.0677    2.3264 H   0  0  0  0  0  0  0  0  0  0  0  0
    2.6115    1.3072    3.4006 H   0  0  0  0  0  0  0  0  0  0  0  0
   -0.1787   -0.3871   -2.8704 H   0  0  0  0  0  0  0  0  0  0  0  0
   -2.9331    2.1078   -0.6717 H   0  0  0  0  0  0  0  0  0  0  0  0
   -4.4358    0.6249   -3.8841 H   0  0  0  0  0  0  0  0  0  0  0  0
   -3.8332    2.9912   -4.1325 H   0  0  0  0  0  0  0  0  0  0  0  0
   -4.3261    3.3466   -2.4814 H   0  0  0  0  0  0  0  0  0  0  0  0
   -6.1185    3.9942   -4.0132 H   0  0  0  0  0  0  0  0  0  0  0  0
   -6.1433    2.4055   -4.7632 H   0  0  0  0  0  0  0  0  0  0  0  0
   -6.8427    3.0446   -1.9691 H   0  0  0  0  0  0  0  0  0  0  0  0
   -7.5326    0.7903   -1.7465 H   0  0  0  0  0  0  0  0  0  0  0  0
   -7.0011    0.4623   -3.3887 H   0  0  0  0  0  0  0  0  0  0  0  0
   -5.2535    1.2528   -0.9993 H   0  0  0  0  0  0  0  0  0  0  0  0
   -5.2935   -0.3188   -1.7896 H   0  0  0  0  0  0  0  0  0  0  0  0
  1  2  1  0
  2  3  1  0
  3  4  2  0
  4  5  1  0
  5  6  2  0
  6  7  1  0
  7  8  2  0
  8  9  1  0
  7 10  1  0
  4 11  1  0
  2 12  1  0
 12 13  1  0
 13 14  2  0
 14 15  1  0
 15 16  2  0
 16 17  1  0
 17 18  2  0
 18 19  1  0
 15 20  1  0
 20 21  1  0
 21 22  2  0
 22 23  1  0
 23 24  1  0
 23 25  1  0
 25 26  1  0
 26 27  1  0
 27 28  1  0
 28 29  1  0
 29 30  1  0
  8  3  1  0
 18 13  1  0
 24 20  2  0
 30 25  1  0
  1 31  1  0
  1 32  1  0
  1 33  1  0
  2 34  1  6
  5 35  1  0
  6 36  1  0
 14 37  1  0
 16 38  1  0
 19 39  1  0
 19 40  1  0
 21 41  1  0
 24 42  1  0
 25 43  1  0
 26 44  1  0
 26 45  1  0
 27 46  1  0
 27 47  1  0
 28 48  1  0
 29 49  1  0
 29 50  1  0
 30 51  1  0
 30 52  1  0
M  END
>  <energy_abs>  (3) 
34.734732690139744

>  <SMILES>  (3) 
C[C@H](c1c(ccc(c1Cl)F)Cl)Oc2cc(cnc2N)c3cnn(c3)C4CCNCC4

>  <cluster_no>  (3) 
3

>  <fda_drugs_id>  (3) 
KTEIFNKAUNYNJU-GFCCVEGCSA-N

>  <initial_conformation_id>  (3) 
251

>  <minimize_method>  (3) 
MMFF

$$$$

     RDKit          3D

 52 55  0  0  0  0  0  0  0  0999 V2000
    2.1392   -3.2116    2.1255 C   0  0  0  0  0  0  0  0  0  0  0  0
    2.6678   -1.9764    1.3925 C   0  0  2  0  0  0  0  0  0  0  0  0
    4.1921   -1.9544    1.3661 C   0  0  0  0  0  0  0  0  0  0  0  0
    4.8898   -2.2845    0.1808 C   0  0  0  0  0  0  0  0  0  0  0  0
    6.2907   -2.2515    0.1191 C   0  0  0  0  0  0  0  0  0  0  0  0
    7.0329   -1.8942    1.2371 C   0  0  0  0  0  0  0  0  0  0  0  0
    6.3712   -1.5821    2.4153 C   0  0  0  0  0  0  0  0  0  0  0  0
    4.9717   -1.6137    2.4956 C   0  0  0  0  0  0  0  0  0  0  0  0
    4.2786   -1.2175    4.0343 Cl  0  0  0  0  0  0  0  0  0  0  0  0
    7.1091   -1.2454    3.4840 F   0  0  0  0  0  0  0  0  0  0  0  0
    4.0837   -2.7725   -1.2736 Cl  0  0  0  0  0  0  0  0  0  0  0  0
    2.1178   -0.8051    2.0313 O   0  0  0  0  0  0  0  0  0  0  0  0
    1.7268    0.1339    1.1111 C   0  0  0  0  0  0  0  0  0  0  0  0
    0.4494    0.0521    0.5567 C   0  0  0  0  0  0  0  0  0  0  0  0
    0.0336    1.0201   -0.3584 C   0  0  0  0  0  0  0  0  0  0  0  0
    0.9454    2.0333   -0.6530 C   0  0  0  0  0  0  0  0  0  0  0  0
    2.1836    2.1513   -0.1051 N   0  0  0  0  0  0  0  0  0  0  0  0
    2.5512    1.2120    0.7820 C   0  0  0  0  0  0  0  0  0  0  0  0
    3.8297    1.3460    1.3232 N   0  0  0  0  0  0  0  0  0  0  0  0
   -1.2828    0.9568   -0.9686 C   0  0  0  0  0  0  0  0  0  0  0  0
   -2.1913   -0.1212   -1.0953 C   0  0  0  0  0  0  0  0  0  0  0  0
   -3.3217    0.2216   -1.7162 N   0  0  0  0  0  0  0  0  0  0  0  0
   -3.1487    1.5262   -1.9964 N   0  0  0  0  0  0  0  0  0  0  0  0
   -1.9435    2.0119   -1.5655 C   0  0  0  0  0  0  0  0  0  0  0  0
   -4.1893    2.2813   -2.6899 C   0  0  0  0  0  0  0  0  0  0  0  0
   -5.5675    2.1444   -2.0203 C   0  0  0  0  0  0  0  0  0  0  0  0
   -6.4539    1.1683   -2.7842 C   0  0  0  0  0  0  0  0  0  0  0  0
   -6.6869    1.5813   -4.1689 N   0  0  0  0  0  0  0  0  0  0  0  0
   -5.5713    2.2959   -4.7868 C   0  0  0  0  0  0  0  0  0  0  0  0
   -4.2224    1.9266   -4.1835 C   0  0  0  0  0  0  0  0  0  0  0  0
    2.4003   -3.2093    3.1878 H   0  0  0  0  0  0  0  0  0  0  0  0
    1.0444   -3.2335    2.0806 H   0  0  0  0  0  0  0  0  0  0  0  0
    2.5220   -4.1358    1.6800 H   0  0  0  0  0  0  0  0  0  0  0  0
    2.2634   -2.0419    0.3768 H   0  0  0  0  0  0  0  0  0  0  0  0
    6.8065   -2.5016   -0.8058 H   0  0  0  0  0  0  0  0  0  0  0  0
    8.1166   -1.8577    1.2010 H   0  0  0  0  0  0  0  0  0  0  0  0
   -0.2039   -0.7615    0.8563 H   0  0  0  0  0  0  0  0  0  0  0  0
    0.7127    2.8165   -1.3692 H   0  0  0  0  0  0  0  0  0  0  0  0
    3.7964    1.2506    2.3339 H   0  0  0  0  0  0  0  0  0  0  0  0
    4.1939    2.2453    1.0220 H   0  0  0  0  0  0  0  0  0  0  0  0
   -2.0769   -1.1457   -0.7637 H   0  0  0  0  0  0  0  0  0  0  0  0
   -1.6775    3.0489   -1.7150 H   0  0  0  0  0  0  0  0  0  0  0  0
   -3.8930    3.3352   -2.5932 H   0  0  0  0  0  0  0  0  0  0  0  0
   -5.4815    1.8374   -0.9710 H   0  0  0  0  0  0  0  0  0  0  0  0
   -6.0578    3.1273   -2.0101 H   0  0  0  0  0  0  0  0  0  0  0  0
   -7.4207    1.0715   -2.2770 H   0  0  0  0  0  0  0  0  0  0  0  0
   -6.0069    0.1678   -2.7819 H   0  0  0  0  0  0  0  0  0  0  0  0
   -7.5352    2.1419   -4.2358 H   0  0  0  0  0  0  0  0  0  0  0  0
   -5.5695    2.0825   -5.8612 H   0  0  0  0  0  0  0  0  0  0  0  0
   -5.7305    3.3760   -4.6790 H   0  0  0  0  0  0  0  0  0  0  0  0
   -4.0332    0.8569   -4.3438 H   0  0  0  0  0  0  0  0  0  0  0  0
   -3.4183    2.4589   -4.7062 H   0  0  0  0  0  0  0  0  0  0  0  0
  1  2  1  0
  2  3  1  0
  3  4  2  0
  4  5  1  0
  5  6  2  0
  6  7  1  0
  7  8  2  0
  8  9  1  0
  7 10  1  0
  4 11  1  0
  2 12  1  0
 12 13  1  0
 13 14  2  0
 14 15  1  0
 15 16  2  0
 16 17  1  0
 17 18  2  0
 18 19  1  0
 15 20  1  0
 20 21  1  0
 21 22  2  0
 22 23  1  0
 23 24  1  0
 23 25  1  0
 25 26  1  0
 26 27  1  0
 27 28  1  0
 28 29  1  0
 29 30  1  0
  8  3  1  0
 18 13  1  0
 24 20  2  0
 30 25  1  0
  1 31  1  0
  1 32  1  0
  1 33  1  0
  2 34  1  6
  5 35  1  0
  6 36  1  0
 14 37  1  0
 16 38  1  0
 19 39  1  0
 19 40  1  0
 21 41  1  0
 24 42  1  0
 25 43  1  0
 26 44  1  0
 26 45  1  0
 27 46  1  0
 27 47  1  0
 28 48  1  0
 29 49  1  0
 29 50  1  0
 30 51  1  0
 30 52  1  0
M  END
>  <energy_abs>  (4) 
28.62868357983574

>  <SMILES>  (4) 
C[C@H](c1c(ccc(c1Cl)F)Cl)Oc2cc(cnc2N)c3cnn(c3)C4CCNCC4

>  <cluster_no>  (4) 
4

>  <fda_drugs_id>  (4) 
KTEIFNKAUNYNJU-GFCCVEGCSA-N

>  <initial_conformation_id>  (4) 
247

>  <minimize_method>  (4) 
MMFF

$$$$

     RDKit          3D

 52 55  0  0  0  0  0  0  0  0999 V2000
    4.5571   -1.4861    3.2465 C   0  0  0  0  0  0  0  0  0  0  0  0
    3.2783   -1.2286    2.4430 C   0  0  2  0  0  0  0  0  0  0  0  0
    3.4619   -1.6407    0.9852 C   0  0  0  0  0  0  0  0  0  0  0  0
    2.9168   -2.8596    0.5153 C   0  0  0  0  0  0  0  0  0  0  0  0
    3.0723   -3.2687   -0.8167 C   0  0  0  0  0  0  0  0  0  0  0  0
    3.7810   -2.4799   -1.7140 C   0  0  0  0  0  0  0  0  0  0  0  0
    4.3339   -1.2869   -1.2733 C   0  0  0  0  0  0  0  0  0  0  0  0
    4.1895   -0.8621    0.0560 C   0  0  0  0  0  0  0  0  0  0  0  0
    4.9446    0.6400    0.4725 Cl  0  0  0  0  0  0  0  0  0  0  0  0
    5.0124   -0.5406   -2.1583 F   0  0  0  0  0  0  0  0  0  0  0  0
    2.0429   -3.9478    1.5411 Cl  0  0  0  0  0  0  0  0  0  0  0  0
    2.9276    0.1634    2.5947 O   0  0  0  0  0  0  0  0  0  0  0  0
    1.5683    0.3526    2.5832 C   0  0  0  0  0  0  0  0  0  0  0  0
    0.9160    0.5592    1.3687 C   0  0  0  0  0  0  0  0  0  0  0  0
   -0.4616    0.7783    1.3543 C   0  0  0  0  0  0  0  0  0  0  0  0
   -1.1035    0.7895    2.5910 C   0  0  0  0  0  0  0  0  0  0  0  0
   -0.4849    0.6205    3.7880 N   0  0  0  0  0  0  0  0  0  0  0  0
    0.8433    0.4262    3.7781 C   0  0  0  0  0  0  0  0  0  0  0  0
    1.4851    0.2861    5.0176 N   0  0  0  0  0  0  0  0  0  0  0  0
   -1.1974    0.9805    0.1181 C   0  0  0  0  0  0  0  0  0  0  0  0
   -2.5778    0.8604   -0.1690 C   0  0  0  0  0  0  0  0  0  0  0  0
   -2.8681    1.1301   -1.4433 N   0  0  0  0  0  0  0  0  0  0  0  0
   -1.6749    1.4331   -1.9869 N   0  0  0  0  0  0  0  0  0  0  0  0
   -0.6446    1.3587   -1.0900 C   0  0  0  0  0  0  0  0  0  0  0  0
   -1.5689    1.7837   -3.3996 C   0  0  0  0  0  0  0  0  0  0  0  0
   -2.5074    2.9362   -3.7939 C   0  0  0  0  0  0  0  0  0  0  0  0
   -3.7260    2.4166   -4.5455 C   0  0  0  0  0  0  0  0  0  0  0  0
   -3.3649    1.7155   -5.7794 N   0  0  0  0  0  0  0  0  0  0  0  0
   -2.1160    0.9586   -5.7071 C   0  0  0  0  0  0  0  0  0  0  0  0
   -1.7501    0.5443   -4.2876 C   0  0  0  0  0  0  0  0  0  0  0  0
    4.3948   -1.2339    4.2994 H   0  0  0  0  0  0  0  0  0  0  0  0
    4.8592   -2.5346    3.1815 H   0  0  0  0  0  0  0  0  0  0  0  0
    5.3925   -0.8659    2.9066 H   0  0  0  0  0  0  0  0  0  0  0  0
    2.4978   -1.8252    2.9270 H   0  0  0  0  0  0  0  0  0  0  0  0
    2.6420   -4.2070   -1.1601 H   0  0  0  0  0  0  0  0  0  0  0  0
    3.9108   -2.7888   -2.7476 H   0  0  0  0  0  0  0  0  0  0  0  0
    1.4900    0.5500    0.4488 H   0  0  0  0  0  0  0  0  0  0  0  0
   -2.1737    0.9563    2.6762 H   0  0  0  0  0  0  0  0  0  0  0  0
    1.9092   -0.6316    5.0715 H   0  0  0  0  0  0  0  0  0  0  0  0
    2.2413    0.9654    5.0551 H   0  0  0  0  0  0  0  0  0  0  0  0
   -3.3860    0.5790    0.4938 H   0  0  0  0  0  0  0  0  0  0  0  0
    0.3694    1.5845   -1.3876 H   0  0  0  0  0  0  0  0  0  0  0  0
   -0.5420    2.1524   -3.5301 H   0  0  0  0  0  0  0  0  0  0  0  0
   -1.9633    3.6298   -4.4497 H   0  0  0  0  0  0  0  0  0  0  0  0
   -2.8217    3.5216   -2.9217 H   0  0  0  0  0  0  0  0  0  0  0  0
   -4.3904    3.2512   -4.7979 H   0  0  0  0  0  0  0  0  0  0  0  0
   -4.3114    1.7416   -3.9086 H   0  0  0  0  0  0  0  0  0  0  0  0
   -3.3280    2.3679   -6.5625 H   0  0  0  0  0  0  0  0  0  0  0  0
   -2.2079    0.0698   -6.3418 H   0  0  0  0  0  0  0  0  0  0  0  0
   -1.3024    1.5645   -6.1263 H   0  0  0  0  0  0  0  0  0  0  0  0
   -2.5309   -0.1194   -3.8919 H   0  0  0  0  0  0  0  0  0  0  0  0
   -0.8248   -0.0448   -4.2928 H   0  0  0  0  0  0  0  0  0  0  0  0
  1  2  1  0
  2  3  1  0
  3  4  2  0
  4  5  1  0
  5  6  2  0
  6  7  1  0
  7  8  2  0
  8  9  1  0
  7 10  1  0
  4 11  1  0
  2 12  1  0
 12 13  1  0
 13 14  2  0
 14 15  1  0
 15 16  2  0
 16 17  1  0
 17 18  2  0
 18 19  1  0
 15 20  1  0
 20 21  1  0
 21 22  2  0
 22 23  1  0
 23 24  1  0
 23 25  1  0
 25 26  1  0
 26 27  1  0
 27 28  1  0
 28 29  1  0
 29 30  1  0
  8  3  1  0
 18 13  1  0
 24 20  2  0
 30 25  1  0
  1 31  1  0
  1 32  1  0
  1 33  1  0
  2 34  1  1
  5 35  1  0
  6 36  1  0
 14 37  1  0
 16 38  1  0
 19 39  1  0
 19 40  1  0
 21 41  1  0
 24 42  1  0
 25 43  1  0
 26 44  1  0
 26 45  1  0
 27 46  1  0
 27 47  1  0
 28 48  1  0
 29 49  1  0
 29 50  1  0
 30 51  1  0
 30 52  1  0
M  END
>  <energy_abs>  (5) 
39.75073209663479

>  <SMILES>  (5) 
C[C@H](c1c(ccc(c1Cl)F)Cl)Oc2cc(cnc2N)c3cnn(c3)C4CCNCC4

>  <cluster_no>  (5) 
5

>  <fda_drugs_id>  (5) 
KTEIFNKAUNYNJU-GFCCVEGCSA-N

>  <initial_conformation_id>  (5) 
180

>  <minimize_method>  (5) 
MMFF

$$$$

     RDKit          3D

 52 55  0  0  0  0  0  0  0  0999 V2000
    3.2402   -1.1444   -1.3815 C   0  0  0  0  0  0  0  0  0  0  0  0
    3.9169   -0.2765   -0.3122 C   0  0  2  0  0  0  0  0  0  0  0  0
    4.9055   -1.0948    0.5166 C   0  0  0  0  0  0  0  0  0  0  0  0
    6.3025   -0.9077    0.3717 C   0  0  0  0  0  0  0  0  0  0  0  0
    7.2261   -1.6317    1.1476 C   0  0  0  0  0  0  0  0  0  0  0  0
    6.7826   -2.5572    2.0836 C   0  0  0  0  0  0  0  0  0  0  0  0
    5.4182   -2.7793    2.2206 C   0  0  0  0  0  0  0  0  0  0  0  0
    4.4802   -2.0628    1.4608 C   0  0  0  0  0  0  0  0  0  0  0  0
    2.8078   -2.4276    1.7533 Cl  0  0  0  0  0  0  0  0  0  0  0  0
    5.0157   -3.7115    3.1012 F   0  0  0  0  0  0  0  0  0  0  0  0
    6.9816    0.2416   -0.7435 Cl  0  0  0  0  0  0  0  0  0  0  0  0
    3.0057    0.3466    0.6121 O   0  0  0  0  0  0  0  0  0  0  0  0
    2.1708    1.2636    0.0344 C   0  0  0  0  0  0  0  0  0  0  0  0
    0.8685    0.8586   -0.2699 C   0  0  0  0  0  0  0  0  0  0  0  0
   -0.0231    1.7688   -0.8345 C   0  0  0  0  0  0  0  0  0  0  0  0
    0.4556    3.0576   -1.0511 C   0  0  0  0  0  0  0  0  0  0  0  0
    1.7058    3.4842   -0.7289 N   0  0  0  0  0  0  0  0  0  0  0  0
    2.5409    2.5983   -0.1627 C   0  0  0  0  0  0  0  0  0  0  0  0
    3.7962    3.0741    0.2430 N   0  0  0  0  0  0  0  0  0  0  0  0
   -1.3801    1.3972   -1.1837 C   0  0  0  0  0  0  0  0  0  0  0  0
   -2.2570    1.9163   -2.1583 C   0  0  0  0  0  0  0  0  0  0  0  0
   -3.4454    1.3054   -2.1605 N   0  0  0  0  0  0  0  0  0  0  0  0
   -3.3422    0.3968   -1.1734 N   0  0  0  0  0  0  0  0  0  0  0  0
   -2.1218    0.4177   -0.5545 C   0  0  0  0  0  0  0  0  0  0  0  0
   -4.4697   -0.4692   -0.8323 C   0  0  0  0  0  0  0  0  0  0  0  0
   -5.1503   -1.0893   -2.0657 C   0  0  0  0  0  0  0  0  0  0  0  0
   -6.4334   -0.3439   -2.4115 C   0  0  0  0  0  0  0  0  0  0  0  0
   -7.4157   -0.3806   -1.3235 N   0  0  0  0  0  0  0  0  0  0  0  0
   -6.8335   -0.3901    0.0197 C   0  0  0  0  0  0  0  0  0  0  0  0
   -5.4639    0.2725    0.0719 C   0  0  0  0  0  0  0  0  0  0  0  0
    2.6475   -0.5233   -2.0609 H   0  0  0  0  0  0  0  0  0  0  0  0
    3.9793   -1.6710   -1.9954 H   0  0  0  0  0  0  0  0  0  0  0  0
    2.5538   -1.8897   -0.9635 H   0  0  0  0  0  0  0  0  0  0  0  0
    4.4410    0.5257   -0.8432 H   0  0  0  0  0  0  0  0  0  0  0  0
    8.2957   -1.4633    1.0379 H   0  0  0  0  0  0  0  0  0  0  0  0
    7.4825   -3.1222    2.6946 H   0  0  0  0  0  0  0  0  0  0  0  0
    0.5740   -0.1690   -0.0735 H   0  0  0  0  0  0  0  0  0  0  0  0
   -0.1702    3.8301   -1.4872 H   0  0  0  0  0  0  0  0  0  0  0  0
    4.5354    2.5962   -0.2554 H   0  0  0  0  0  0  0  0  0  0  0  0
    3.9149    2.8632    1.2303 H   0  0  0  0  0  0  0  0  0  0  0  0
   -2.0819    2.7096   -2.8740 H   0  0  0  0  0  0  0  0  0  0  0  0
   -1.9021   -0.2431    0.2730 H   0  0  0  0  0  0  0  0  0  0  0  0
   -4.0306   -1.2987   -0.2623 H   0  0  0  0  0  0  0  0  0  0  0  0
   -4.4791   -1.1142   -2.9337 H   0  0  0  0  0  0  0  0  0  0  0  0
   -5.4003   -2.1354   -1.8451 H   0  0  0  0  0  0  0  0  0  0  0  0
   -6.8867   -0.7771   -3.3081 H   0  0  0  0  0  0  0  0  0  0  0  0
   -6.2140    0.7007   -2.6582 H   0  0  0  0  0  0  0  0  0  0  0  0
   -8.0335   -1.1815   -1.4336 H   0  0  0  0  0  0  0  0  0  0  0  0
   -7.5193    0.1203    0.7058 H   0  0  0  0  0  0  0  0  0  0  0  0
   -6.7488   -1.4260    0.3718 H   0  0  0  0  0  0  0  0  0  0  0  0
   -5.5594    1.3227   -0.2295 H   0  0  0  0  0  0  0  0  0  0  0  0
   -5.0919    0.2870    1.1014 H   0  0  0  0  0  0  0  0  0  0  0  0
  1  2  1  0
  2  3  1  0
  3  4  2  0
  4  5  1  0
  5  6  2  0
  6  7  1  0
  7  8  2  0
  8  9  1  0
  7 10  1  0
  4 11  1  0
  2 12  1  0
 12 13  1  0
 13 14  2  0
 14 15  1  0
 15 16  2  0
 16 17  1  0
 17 18  2  0
 18 19  1  0
 15 20  1  0
 20 21  1  0
 21 22  2  0
 22 23  1  0
 23 24  1  0
 23 25  1  0
 25 26  1  0
 26 27  1  0
 27 28  1  0
 28 29  1  0
 29 30  1  0
  8  3  1  0
 18 13  1  0
 24 20  2  0
 30 25  1  0
  1 31  1  0
  1 32  1  0
  1 33  1  0
  2 34  1  6
  5 35  1  0
  6 36  1  0
 14 37  1  0
 16 38  1  0
 19 39  1  0
 19 40  1  0
 21 41  1  0
 24 42  1  0
 25 43  1  0
 26 44  1  0
 26 45  1  0
 27 46  1  0
 27 47  1  0
 28 48  1  0
 29 49  1  0
 29 50  1  0
 30 51  1  0
 30 52  1  0
M  END
>  <energy_abs>  (6) 
41.84682760588527

>  <SMILES>  (6) 
C[C@H](c1c(ccc(c1Cl)F)Cl)Oc2cc(cnc2N)c3cnn(c3)C4CCNCC4

>  <cluster_no>  (6) 
6

>  <fda_drugs_id>  (6) 
KTEIFNKAUNYNJU-GFCCVEGCSA-N

>  <initial_conformation_id>  (6) 
51

>  <minimize_method>  (6) 
MMFF

$$$$

     RDKit          3D

 52 55  0  0  0  0  0  0  0  0999 V2000
    2.7783   -3.7626   -0.3056 C   0  0  0  0  0  0  0  0  0  0  0  0
    2.8218   -2.3269    0.2233 C   0  0  2  0  0  0  0  0  0  0  0  0
    4.2345   -1.9140    0.6262 C   0  0  0  0  0  0  0  0  0  0  0  0
    4.9779   -1.0225   -0.1838 C   0  0  0  0  0  0  0  0  0  0  0  0
    6.2806   -0.6300    0.1599 C   0  0  0  0  0  0  0  0  0  0  0  0
    6.8797   -1.1189    1.3139 C   0  0  0  0  0  0  0  0  0  0  0  0
    6.1759   -2.0045    2.1163 C   0  0  0  0  0  0  0  0  0  0  0  0
    4.8723   -2.4066    1.7891 C   0  0  0  0  0  0  0  0  0  0  0  0
    4.1102   -3.5144    2.8828 Cl  0  0  0  0  0  0  0  0  0  0  0  0
    6.7748   -2.4640    3.2254 F   0  0  0  0  0  0  0  0  0  0  0  0
    4.3574   -0.3597   -1.6594 Cl  0  0  0  0  0  0  0  0  0  0  0  0
    1.9104   -2.2213    1.3344 O   0  0  0  0  0  0  0  0  0  0  0  0
    1.1833   -1.0580    1.3538 C   0  0  0  0  0  0  0  0  0  0  0  0
    0.2957   -0.7338    0.3258 C   0  0  0  0  0  0  0  0  0  0  0  0
   -0.4492    0.4446    0.4026 C   0  0  0  0  0  0  0  0  0  0  0  0
   -0.2715    1.2260    1.5414 C   0  0  0  0  0  0  0  0  0  0  0  0
    0.5585    0.9172    2.5689 N   0  0  0  0  0  0  0  0  0  0  0  0
    1.2614   -0.2242    2.4772 C   0  0  0  0  0  0  0  0  0  0  0  0
    2.0836   -0.5636    3.5648 N   0  0  0  0  0  0  0  0  0  0  0  0
   -1.3717    0.8153   -0.6541 C   0  0  0  0  0  0  0  0  0  0  0  0
   -2.0510    0.0221   -1.6080 C   0  0  0  0  0  0  0  0  0  0  0  0
   -2.8114    0.7425   -2.4351 N   0  0  0  0  0  0  0  0  0  0  0  0
   -2.6310    2.0081   -2.0138 N   0  0  0  0  0  0  0  0  0  0  0  0
   -1.7719    2.1024   -0.9517 C   0  0  0  0  0  0  0  0  0  0  0  0
   -3.3197    3.1161   -2.6709 C   0  0  0  0  0  0  0  0  0  0  0  0
   -4.7894    3.1837   -2.2314 C   0  0  0  0  0  0  0  0  0  0  0  0
   -5.6160    3.9474   -3.2578 C   0  0  0  0  0  0  0  0  0  0  0  0
   -5.6154    3.3076   -4.5713 N   0  0  0  0  0  0  0  0  0  0  0  0
   -4.4109    2.5325   -4.8729 C   0  0  0  0  0  0  0  0  0  0  0  0
   -3.1622    3.0924   -4.2009 C   0  0  0  0  0  0  0  0  0  0  0  0
    3.0257   -4.5012    0.4631 H   0  0  0  0  0  0  0  0  0  0  0  0
    3.4673   -3.8969   -1.1460 H   0  0  0  0  0  0  0  0  0  0  0  0
    1.7649   -4.0049   -0.6455 H   0  0  0  0  0  0  0  0  0  0  0  0
    2.4646   -1.7037   -0.5999 H   0  0  0  0  0  0  0  0  0  0  0  0
    6.8338    0.0613   -0.4743 H   0  0  0  0  0  0  0  0  0  0  0  0
    7.8872   -0.8217    1.5905 H   0  0  0  0  0  0  0  0  0  0  0  0
    0.1857   -1.4022   -0.5222 H   0  0  0  0  0  0  0  0  0  0  0  0
   -0.8225    2.1510    1.6895 H   0  0  0  0  0  0  0  0  0  0  0  0
    1.7980   -1.4857    3.8894 H   0  0  0  0  0  0  0  0  0  0  0  0
    3.0360   -0.6699    3.2319 H   0  0  0  0  0  0  0  0  0  0  0  0
   -2.0286   -1.0529   -1.7335 H   0  0  0  0  0  0  0  0  0  0  0  0
   -1.5247    3.0612   -0.5171 H   0  0  0  0  0  0  0  0  0  0  0  0
   -2.8110    4.0226   -2.3145 H   0  0  0  0  0  0  0  0  0  0  0  0
   -4.8590    3.6739   -1.2523 H   0  0  0  0  0  0  0  0  0  0  0  0
   -5.2123    2.1786   -2.0986 H   0  0  0  0  0  0  0  0  0  0  0  0
   -6.6508    4.0356   -2.9099 H   0  0  0  0  0  0  0  0  0  0  0  0
   -5.2251    4.9685   -3.3510 H   0  0  0  0  0  0  0  0  0  0  0  0
   -5.7882    4.0023   -5.2969 H   0  0  0  0  0  0  0  0  0  0  0  0
   -4.2671    2.5107   -5.9592 H   0  0  0  0  0  0  0  0  0  0  0  0
   -4.5718    1.4930   -4.5655 H   0  0  0  0  0  0  0  0  0  0  0  0
   -3.0037    4.1189   -4.5584 H   0  0  0  0  0  0  0  0  0  0  0  0
   -2.2767    2.5233   -4.5090 H   0  0  0  0  0  0  0  0  0  0  0  0
  1  2  1  0
  2  3  1  0
  3  4  2  0
  4  5  1  0
  5  6  2  0
  6  7  1  0
  7  8  2  0
  8  9  1  0
  7 10  1  0
  4 11  1  0
  2 12  1  0
 12 13  1  0
 13 14  2  0
 14 15  1  0
 15 16  2  0
 16 17  1  0
 17 18  2  0
 18 19  1  0
 15 20  1  0
 20 21  1  0
 21 22  2  0
 22 23  1  0
 23 24  1  0
 23 25  1  0
 25 26  1  0
 26 27  1  0
 27 28  1  0
 28 29  1  0
 29 30  1  0
  8  3  1  0
 18 13  1  0
 24 20  2  0
 30 25  1  0
  1 31  1  0
  1 32  1  0
  1 33  1  0
  2 34  1  6
  5 35  1  0
  6 36  1  0
 14 37  1  0
 16 38  1  0
 19 39  1  0
 19 40  1  0
 21 41  1  0
 24 42  1  0
 25 43  1  0
 26 44  1  0
 26 45  1  0
 27 46  1  0
 27 47  1  0
 28 48  1  0
 29 49  1  0
 29 50  1  0
 30 51  1  0
 30 52  1  0
M  END
>  <energy_abs>  (7) 
39.633330670866975

>  <SMILES>  (7) 
C[C@H](c1c(ccc(c1Cl)F)Cl)Oc2cc(cnc2N)c3cnn(c3)C4CCNCC4

>  <cluster_no>  (7) 
7

>  <fda_drugs_id>  (7) 
KTEIFNKAUNYNJU-GFCCVEGCSA-N

>  <initial_conformation_id>  (7) 
261

>  <minimize_method>  (7) 
MMFF

$$$$

     RDKit          3D

 52 55  0  0  0  0  0  0  0  0999 V2000
    2.3075   -2.8850    0.4249 C   0  0  0  0  0  0  0  0  0  0  0  0
    3.1304   -1.6400    0.7823 C   0  0  2  0  0  0  0  0  0  0  0  0
    4.3435   -1.9972    1.6400 C   0  0  0  0  0  0  0  0  0  0  0  0
    4.2296   -2.3922    2.9950 C   0  0  0  0  0  0  0  0  0  0  0  0
    5.3581   -2.7289    3.7555 C   0  0  0  0  0  0  0  0  0  0  0  0
    6.6281   -2.6817    3.1907 C   0  0  0  0  0  0  0  0  0  0  0  0
    6.7650   -2.2988    1.8667 C   0  0  0  0  0  0  0  0  0  0  0  0
    5.6488   -1.9622    1.0911 C   0  0  0  0  0  0  0  0  0  0  0  0
    5.9523   -1.5085   -0.5555 Cl  0  0  0  0  0  0  0  0  0  0  0  0
    7.9981   -2.2559    1.3431 F   0  0  0  0  0  0  0  0  0  0  0  0
    2.7160   -2.5002    3.8315 Cl  0  0  0  0  0  0  0  0  0  0  0  0
    2.3182   -0.6828    1.4872 O   0  0  0  0  0  0  0  0  0  0  0  0
    1.8515    0.3118    0.6660 C   0  0  0  0  0  0  0  0  0  0  0  0
    0.5517    0.2087    0.1680 C   0  0  0  0  0  0  0  0  0  0  0  0
    0.0431    1.2191   -0.6503 C   0  0  0  0  0  0  0  0  0  0  0  0
    0.8918    2.2964   -0.9026 C   0  0  0  0  0  0  0  0  0  0  0  0
    2.1483    2.4314   -0.4060 N   0  0  0  0  0  0  0  0  0  0  0  0
    2.6087    1.4584    0.3969 C   0  0  0  0  0  0  0  0  0  0  0  0
    3.9089    1.6053    0.9066 N   0  0  0  0  0  0  0  0  0  0  0  0
   -1.2944    1.1252   -1.2135 C   0  0  0  0  0  0  0  0  0  0  0  0
   -2.2164    0.0527   -1.2182 C   0  0  0  0  0  0  0  0  0  0  0  0
   -3.3483    0.3432   -1.8591 N   0  0  0  0  0  0  0  0  0  0  0  0
   -3.1768    1.6177   -2.2534 N   0  0  0  0  0  0  0  0  0  0  0  0
   -1.9607    2.1258   -1.8932 C   0  0  0  0  0  0  0  0  0  0  0  0
   -4.2300    2.3152   -2.9876 C   0  0  0  0  0  0  0  0  0  0  0  0
   -4.7400    1.5144   -4.1966 C   0  0  0  0  0  0  0  0  0  0  0  0
   -6.0191    0.7637   -3.8589 C   0  0  0  0  0  0  0  0  0  0  0  0
   -7.0988    1.6387   -3.4090 N   0  0  0  0  0  0  0  0  0  0  0  0
   -6.6677    2.8945   -2.8095 C   0  0  0  0  0  0  0  0  0  0  0  0
   -5.3625    2.7437   -2.0433 C   0  0  0  0  0  0  0  0  0  0  0  0
    2.9320   -3.6532   -0.0433 H   0  0  0  0  0  0  0  0  0  0  0  0
    1.8140   -3.3270    1.2931 H   0  0  0  0  0  0  0  0  0  0  0  0
    1.5110   -2.6247   -0.2782 H   0  0  0  0  0  0  0  0  0  0  0  0
    3.4545   -1.1986   -0.1677 H   0  0  0  0  0  0  0  0  0  0  0  0
    5.2509   -3.0330    4.7958 H   0  0  0  0  0  0  0  0  0  0  0  0
    7.5084   -2.9381    3.7698 H   0  0  0  0  0  0  0  0  0  0  0  0
   -0.0430   -0.6598    0.4323 H   0  0  0  0  0  0  0  0  0  0  0  0
    0.5926    3.1242   -1.5403 H   0  0  0  0  0  0  0  0  0  0  0  0
    4.5223    0.9355    0.4546 H   0  0  0  0  0  0  0  0  0  0  0  0
    3.8861    1.3927    1.9030 H   0  0  0  0  0  0  0  0  0  0  0  0
   -2.1091   -0.9331   -0.7872 H   0  0  0  0  0  0  0  0  0  0  0  0
   -1.6913    3.1400   -2.1533 H   0  0  0  0  0  0  0  0  0  0  0  0
   -3.7523    3.2195   -3.3845 H   0  0  0  0  0  0  0  0  0  0  0  0
   -4.9472    2.2089   -5.0235 H   0  0  0  0  0  0  0  0  0  0  0  0
   -3.9773    0.8149   -4.5695 H   0  0  0  0  0  0  0  0  0  0  0  0
   -5.8267    0.0227   -3.0770 H   0  0  0  0  0  0  0  0  0  0  0  0
   -6.3567    0.2004   -4.7382 H   0  0  0  0  0  0  0  0  0  0  0  0
   -7.7743    1.8009   -4.1561 H   0  0  0  0  0  0  0  0  0  0  0  0
   -6.5532    3.6543   -3.5888 H   0  0  0  0  0  0  0  0  0  0  0  0
   -7.4533    3.2489   -2.1333 H   0  0  0  0  0  0  0  0  0  0  0  0
   -5.0988    3.6880   -1.5559 H   0  0  0  0  0  0  0  0  0  0  0  0
   -5.5009    2.0196   -1.2326 H   0  0  0  0  0  0  0  0  0  0  0  0
  1  2  1  0
  2  3  1  0
  3  4  2  0
  4  5  1  0
  5  6  2  0
  6  7  1  0
  7  8  2  0
  8  9  1  0
  7 10  1  0
  4 11  1  0
  2 12  1  0
 12 13  1  0
 13 14  2  0
 14 15  1  0
 15 16  2  0
 16 17  1  0
 17 18  2  0
 18 19  1  0
 15 20  1  0
 20 21  1  0
 21 22  2  0
 22 23  1  0
 23 24  1  0
 23 25  1  0
 25 26  1  0
 26 27  1  0
 27 28  1  0
 28 29  1  0
 29 30  1  0
  8  3  1  0
 18 13  1  0
 24 20  2  0
 30 25  1  0
  1 31  1  0
  1 32  1  0
  1 33  1  0
  2 34  1  6
  5 35  1  0
  6 36  1  0
 14 37  1  0
 16 38  1  0
 19 39  1  0
 19 40  1  0
 21 41  1  0
 24 42  1  0
 25 43  1  0
 26 44  1  0
 26 45  1  0
 27 46  1  0
 27 47  1  0
 28 48  1  0
 29 49  1  0
 29 50  1  0
 30 51  1  0
 30 52  1  0
M  END
>  <energy_abs>  (8) 
41.03437140680314

>  <SMILES>  (8) 
C[C@H](c1c(ccc(c1Cl)F)Cl)Oc2cc(cnc2N)c3cnn(c3)C4CCNCC4

>  <cluster_no>  (8) 
8

>  <fda_drugs_id>  (8) 
KTEIFNKAUNYNJU-GFCCVEGCSA-N

>  <initial_conformation_id>  (8) 
236

>  <minimize_method>  (8) 
MMFF

$$$$

     RDKit          3D

 52 55  0  0  0  0  0  0  0  0999 V2000
    2.1767   -0.5430    2.9578 C   0  0  0  0  0  0  0  0  0  0  0  0
    2.8994   -1.1359    1.7449 C   0  0  2  0  0  0  0  0  0  0  0  0
    4.3064   -1.6079    2.1036 C   0  0  0  0  0  0  0  0  0  0  0  0
    4.5882   -2.9893    2.2281 C   0  0  0  0  0  0  0  0  0  0  0  0
    5.8709   -3.4521    2.5570 C   0  0  0  0  0  0  0  0  0  0  0  0
    6.9049   -2.5518    2.7791 C   0  0  0  0  0  0  0  0  0  0  0  0
    6.6510   -1.1919    2.6762 C   0  0  0  0  0  0  0  0  0  0  0  0
    5.3747   -0.7115    2.3458 C   0  0  0  0  0  0  0  0  0  0  0  0
    5.1964    1.0106    2.2665 Cl  0  0  0  0  0  0  0  0  0  0  0  0
    7.6637   -0.3419    2.9052 F   0  0  0  0  0  0  0  0  0  0  0  0
    3.3867   -4.2137    1.9922 Cl  0  0  0  0  0  0  0  0  0  0  0  0
    2.9717   -0.1608    0.6870 O   0  0  0  0  0  0  0  0  0  0  0  0
    2.0622   -0.4060   -0.3090 C   0  0  0  0  0  0  0  0  0  0  0  0
    0.8613    0.3003   -0.3036 C   0  0  0  0  0  0  0  0  0  0  0  0
   -0.0579    0.0937   -1.3312 C   0  0  0  0  0  0  0  0  0  0  0  0
    0.2983   -0.8239   -2.3174 C   0  0  0  0  0  0  0  0  0  0  0  0
    1.4736   -1.5008   -2.3579 N   0  0  0  0  0  0  0  0  0  0  0  0
    2.3552   -1.2698   -1.3726 C   0  0  0  0  0  0  0  0  0  0  0  0
    3.5882   -1.9364   -1.4434 N   0  0  0  0  0  0  0  0  0  0  0  0
   -1.3217    0.8045   -1.3586 C   0  0  0  0  0  0  0  0  0  0  0  0
   -2.0916    1.3669   -0.3137 C   0  0  0  0  0  0  0  0  0  0  0  0
   -3.2046    1.9610   -0.7508 N   0  0  0  0  0  0  0  0  0  0  0  0
   -3.1513    1.7948   -2.0860 N   0  0  0  0  0  0  0  0  0  0  0  0
   -2.0430    1.1036   -2.4966 C   0  0  0  0  0  0  0  0  0  0  0  0
   -4.2003    2.3350   -2.9465 C   0  0  0  0  0  0  0  0  0  0  0  0
   -5.4807    1.4956   -2.8455 C   0  0  0  0  0  0  0  0  0  0  0  0
   -6.6705    2.2788   -3.3879 C   0  0  0  0  0  0  0  0  0  0  0  0
   -6.9142    3.5340   -2.6778 N   0  0  0  0  0  0  0  0  0  0  0  0
   -5.7568    4.0570   -1.9520 C   0  0  0  0  0  0  0  0  0  0  0  0
   -4.4520    3.8334   -2.7044 C   0  0  0  0  0  0  0  0  0  0  0  0
    2.6356    0.3864    3.3054 H   0  0  0  0  0  0  0  0  0  0  0  0
    1.1426   -0.2927    2.6987 H   0  0  0  0  0  0  0  0  0  0  0  0
    2.1572   -1.2491    3.7932 H   0  0  0  0  0  0  0  0  0  0  0  0
    2.2937   -1.9829    1.4058 H   0  0  0  0  0  0  0  0  0  0  0  0
    6.0666   -4.5205    2.6439 H   0  0  0  0  0  0  0  0  0  0  0  0
    7.9015   -2.8964    3.0349 H   0  0  0  0  0  0  0  0  0  0  0  0
    0.6694    1.0172    0.4892 H   0  0  0  0  0  0  0  0  0  0  0  0
   -0.3689   -1.0614   -3.1414 H   0  0  0  0  0  0  0  0  0  0  0  0
    3.6764   -2.5685   -0.6583 H   0  0  0  0  0  0  0  0  0  0  0  0
    4.3213   -1.2367   -1.3601 H   0  0  0  0  0  0  0  0  0  0  0  0
   -1.8911    1.3631    0.7505 H   0  0  0  0  0  0  0  0  0  0  0  0
   -1.8640    0.9047   -3.5450 H   0  0  0  0  0  0  0  0  0  0  0  0
   -3.8086    2.2417   -3.9692 H   0  0  0  0  0  0  0  0  0  0  0  0
   -5.6825    1.1975   -1.8081 H   0  0  0  0  0  0  0  0  0  0  0  0
   -5.3551    0.5615   -3.4100 H   0  0  0  0  0  0  0  0  0  0  0  0
   -6.5046    2.4913   -4.4522 H   0  0  0  0  0  0  0  0  0  0  0  0
   -7.5751    1.6631   -3.3279 H   0  0  0  0  0  0  0  0  0  0  0  0
   -7.2754    4.2345   -3.3271 H   0  0  0  0  0  0  0  0  0  0  0  0
   -5.9053    5.1289   -1.7764 H   0  0  0  0  0  0  0  0  0  0  0  0
   -5.7105    3.5875   -0.9618 H   0  0  0  0  0  0  0  0  0  0  0  0
   -3.6216    4.3051   -2.1677 H   0  0  0  0  0  0  0  0  0  0  0  0
   -4.5164    4.3452   -3.6739 H   0  0  0  0  0  0  0  0  0  0  0  0
  1  2  1  0
  2  3  1  0
  3  4  2  0
  4  5  1  0
  5  6  2  0
  6  7  1  0
  7  8  2  0
  8  9  1  0
  7 10  1  0
  4 11  1  0
  2 12  1  0
 12 13  1  0
 13 14  2  0
 14 15  1  0
 15 16  2  0
 16 17  1  0
 17 18  2  0
 18 19  1  0
 15 20  1  0
 20 21  1  0
 21 22  2  0
 22 23  1  0
 23 24  1  0
 23 25  1  0
 25 26  1  0
 26 27  1  0
 27 28  1  0
 28 29  1  0
 29 30  1  0
  8  3  1  0
 18 13  1  0
 24 20  2  0
 30 25  1  0
  1 31  1  0
  1 32  1  0
  1 33  1  0
  2 34  1  6
  5 35  1  0
  6 36  1  0
 14 37  1  0
 16 38  1  0
 19 39  1  0
 19 40  1  0
 21 41  1  0
 24 42  1  0
 25 43  1  0
 26 44  1  0
 26 45  1  0
 27 46  1  0
 27 47  1  0
 28 48  1  0
 29 49  1  0
 29 50  1  0
 30 51  1  0
 30 52  1  0
M  END
>  <energy_abs>  (9) 
40.760802744785444

>  <SMILES>  (9) 
C[C@H](c1c(ccc(c1Cl)F)Cl)Oc2cc(cnc2N)c3cnn(c3)C4CCNCC4

>  <cluster_no>  (9) 
9

>  <fda_drugs_id>  (9) 
KTEIFNKAUNYNJU-GFCCVEGCSA-N

>  <initial_conformation_id>  (9) 
232

>  <minimize_method>  (9) 
MMFF

$$$$

     RDKit          3D

 52 55  0  0  0  0  0  0  0  0999 V2000
    2.5855   -3.7065    0.6869 C   0  0  0  0  0  0  0  0  0  0  0  0
    2.8595   -2.2012    0.6803 C   0  0  2  0  0  0  0  0  0  0  0  0
    4.3355   -1.9020    0.9150 C   0  0  0  0  0  0  0  0  0  0  0  0
    5.1606   -1.4963   -0.1610 C   0  0  0  0  0  0  0  0  0  0  0  0
    6.5190   -1.2014    0.0255 C   0  0  0  0  0  0  0  0  0  0  0  0
    7.0919   -1.3084    1.2860 C   0  0  0  0  0  0  0  0  0  0  0  0
    6.3054   -1.7166    2.3541 C   0  0  0  0  0  0  0  0  0  0  0  0
    4.9461   -2.0175    2.1853 C   0  0  0  0  0  0  0  0  0  0  0  0
    4.0872   -2.5332    3.6010 Cl  0  0  0  0  0  0  0  0  0  0  0  0
    6.8847   -1.8241    3.5606 F   0  0  0  0  0  0  0  0  0  0  0  0
    4.5762   -1.3539   -1.7875 Cl  0  0  0  0  0  0  0  0  0  0  0  0
    2.0149   -1.5856    1.6737 O   0  0  0  0  0  0  0  0  0  0  0  0
    1.5134   -0.3856    1.2388 C   0  0  0  0  0  0  0  0  0  0  0  0
    0.3857   -0.3694    0.4177 C   0  0  0  0  0  0  0  0  0  0  0  0
   -0.1410    0.8532    0.0010 C   0  0  0  0  0  0  0  0  0  0  0  0
    0.5023    2.0029    0.4550 C   0  0  0  0  0  0  0  0  0  0  0  0
    1.5842    2.0141    1.2771 N   0  0  0  0  0  0  0  0  0  0  0  0
    2.0655    0.8225    1.6713 C   0  0  0  0  0  0  0  0  0  0  0  0
    3.1899    0.8570    2.4964 N   0  0  0  0  0  0  0  0  0  0  0  0
   -1.2954    0.9071   -0.8741 C   0  0  0  0  0  0  0  0  0  0  0  0
   -1.7646   -0.0157   -1.8368 C   0  0  0  0  0  0  0  0  0  0  0  0
   -2.8873    0.3870   -2.4352 N   0  0  0  0  0  0  0  0  0  0  0  0
   -3.1477    1.5769   -1.8603 N   0  0  0  0  0  0  0  0  0  0  0  0
   -2.2202    1.9306   -0.9176 C   0  0  0  0  0  0  0  0  0  0  0  0
   -4.3307    2.3423   -2.2450 C   0  0  0  0  0  0  0  0  0  0  0  0
   -4.1293    3.0208   -3.6074 C   0  0  0  0  0  0  0  0  0  0  0  0
   -5.4753    3.3425   -4.2448 C   0  0  0  0  0  0  0  0  0  0  0  0
   -6.2780    2.1482   -4.5014 N   0  0  0  0  0  0  0  0  0  0  0  0
   -6.0341    1.0396   -3.5782 C   0  0  0  0  0  0  0  0  0  0  0  0
   -5.6191    1.5049   -2.1875 C   0  0  0  0  0  0  0  0  0  0  0  0
    2.7861   -4.1652    1.6589 H   0  0  0  0  0  0  0  0  0  0  0  0
    1.5279   -3.8948    0.4718 H   0  0  0  0  0  0  0  0  0  0  0  0
    3.1900   -4.2241   -0.0654 H   0  0  0  0  0  0  0  0  0  0  0  0
    2.5455   -1.8527   -0.3091 H   0  0  0  0  0  0  0  0  0  0  0  0
    7.1348   -0.8871   -0.8150 H   0  0  0  0  0  0  0  0  0  0  0  0
    8.1419   -1.0823    1.4436 H   0  0  0  0  0  0  0  0  0  0  0  0
   -0.0719   -1.3086    0.1233 H   0  0  0  0  0  0  0  0  0  0  0  0
    0.1675    2.9934    0.1577 H   0  0  0  0  0  0  0  0  0  0  0  0
    3.3450    1.8249    2.7615 H   0  0  0  0  0  0  0  0  0  0  0  0
    3.0634    0.2419    3.2949 H   0  0  0  0  0  0  0  0  0  0  0  0
   -1.3331   -0.9641   -2.1313 H   0  0  0  0  0  0  0  0  0  0  0  0
   -2.3090    2.8562   -0.3653 H   0  0  0  0  0  0  0  0  0  0  0  0
   -4.4277    3.1264   -1.4814 H   0  0  0  0  0  0  0  0  0  0  0  0
   -3.5473    2.3853   -4.2884 H   0  0  0  0  0  0  0  0  0  0  0  0
   -3.5446    3.9406   -3.4757 H   0  0  0  0  0  0  0  0  0  0  0  0
   -6.0340    4.0228   -3.5885 H   0  0  0  0  0  0  0  0  0  0  0  0
   -5.3202    3.8713   -5.1914 H   0  0  0  0  0  0  0  0  0  0  0  0
   -7.2678    2.3907   -4.5206 H   0  0  0  0  0  0  0  0  0  0  0  0
   -6.9417    0.4302   -3.5085 H   0  0  0  0  0  0  0  0  0  0  0  0
   -5.2614    0.3902   -4.0067 H   0  0  0  0  0  0  0  0  0  0  0  0
   -5.5133    0.6452   -1.5151 H   0  0  0  0  0  0  0  0  0  0  0  0
   -6.4289    2.1192   -1.7680 H   0  0  0  0  0  0  0  0  0  0  0  0
  1  2  1  0
  2  3  1  0
  3  4  2  0
  4  5  1  0
  5  6  2  0
  6  7  1  0
  7  8  2  0
  8  9  1  0
  7 10  1  0
  4 11  1  0
  2 12  1  0
 12 13  1  0
 13 14  2  0
 14 15  1  0
 15 16  2  0
 16 17  1  0
 17 18  2  0
 18 19  1  0
 15 20  1  0
 20 21  1  0
 21 22  2  0
 22 23  1  0
 23 24  1  0
 23 25  1  0
 25 26  1  0
 26 27  1  0
 27 28  1  0
 28 29  1  0
 29 30  1  0
  8  3  1  0
 18 13  1  0
 24 20  2  0
 30 25  1  0
  1 31  1  0
  1 32  1  0
  1 33  1  0
  2 34  1  6
  5 35  1  0
  6 36  1  0
 14 37  1  0
 16 38  1  0
 19 39  1  0
 19 40  1  0
 21 41  1  0
 24 42  1  0
 25 43  1  0
 26 44  1  0
 26 45  1  0
 27 46  1  0
 27 47  1  0
 28 48  1  0
 29 49  1  0
 29 50  1  0
 30 51  1  0
 30 52  1  0
M  END
>  <energy_abs>  (10) 
28.66011086345466

>  <SMILES>  (10) 
C[C@H](c1c(ccc(c1Cl)F)Cl)Oc2cc(cnc2N)c3cnn(c3)C4CCNCC4

>  <cluster_no>  (10) 
10

>  <fda_drugs_id>  (10) 
KTEIFNKAUNYNJU-GFCCVEGCSA-N

>  <initial_conformation_id>  (10) 
225

>  <minimize_method>  (10) 
MMFF

$$$$

     RDKit          3D

 52 55  0  0  0  0  0  0  0  0999 V2000
    5.3650    0.6994   -0.2058 C   0  0  0  0  0  0  0  0  0  0  0  0
    4.0639   -0.0222    0.1676 C   0  0  2  0  0  0  0  0  0  0  0  0
    4.1718   -0.7588    1.5020 C   0  0  0  0  0  0  0  0  0  0  0  0
    3.4632   -0.2961    2.6380 C   0  0  0  0  0  0  0  0  0  0  0  0
    3.5478   -0.9530    3.8759 C   0  0  0  0  0  0  0  0  0  0  0  0
    4.3394   -2.0861    4.0172 C   0  0  0  0  0  0  0  0  0  0  0  0
    5.0447   -2.5571    2.9193 C   0  0  0  0  0  0  0  0  0  0  0  0
    4.9707   -1.9137    1.6741 C   0  0  0  0  0  0  0  0  0  0  0  0
    5.8859   -2.6239    0.3838 Cl  0  0  0  0  0  0  0  0  0  0  0  0
    5.8028   -3.6546    3.0781 F   0  0  0  0  0  0  0  0  0  0  0  0
    2.4464    1.1065    2.6027 Cl  0  0  0  0  0  0  0  0  0  0  0  0
    3.7152   -0.9154   -0.9093 O   0  0  0  0  0  0  0  0  0  0  0  0
    2.3683   -1.1546   -1.0382 C   0  0  0  0  0  0  0  0  0  0  0  0
    1.4446   -0.1263   -1.2360 C   0  0  0  0  0  0  0  0  0  0  0  0
    0.0897   -0.4311   -1.3827 C   0  0  0  0  0  0  0  0  0  0  0  0
   -0.2611   -1.7766   -1.3487 C   0  0  0  0  0  0  0  0  0  0  0  0
    0.6185   -2.7966   -1.1989 N   0  0  0  0  0  0  0  0  0  0  0  0
    1.9184   -2.4826   -1.0614 C   0  0  0  0  0  0  0  0  0  0  0  0
    2.8297   -3.5484   -0.9855 N   0  0  0  0  0  0  0  0  0  0  0  0
   -0.8929    0.6159   -1.5800 C   0  0  0  0  0  0  0  0  0  0  0  0
   -0.7807    1.8820   -2.1976 C   0  0  0  0  0  0  0  0  0  0  0  0
   -1.9196    2.5770   -2.1615 N   0  0  0  0  0  0  0  0  0  0  0  0
   -2.7754    1.7576   -1.5241 N   0  0  0  0  0  0  0  0  0  0  0  0
   -2.2040    0.5706   -1.1525 C   0  0  0  0  0  0  0  0  0  0  0  0
   -4.1546    2.1719   -1.2807 C   0  0  0  0  0  0  0  0  0  0  0  0
   -4.9757    2.1530   -2.5795 C   0  0  0  0  0  0  0  0  0  0  0  0
   -6.1931    3.0606   -2.4515 C   0  0  0  0  0  0  0  0  0  0  0  0
   -5.8376    4.4590   -2.2126 N   0  0  0  0  0  0  0  0  0  0  0  0
   -4.5647    4.6543   -1.5164 C   0  0  0  0  0  0  0  0  0  0  0  0
   -4.2415    3.5219   -0.5472 C   0  0  0  0  0  0  0  0  0  0  0  0
    6.1830    0.0087   -0.4317 H   0  0  0  0  0  0  0  0  0  0  0  0
    5.6932    1.3730    0.5936 H   0  0  0  0  0  0  0  0  0  0  0  0
    5.2110    1.2932   -1.1151 H   0  0  0  0  0  0  0  0  0  0  0  0
    3.3203    0.7774    0.2256 H   0  0  0  0  0  0  0  0  0  0  0  0
    2.9902   -0.5831    4.7362 H   0  0  0  0  0  0  0  0  0  0  0  0
    4.4077   -2.6070    4.9694 H   0  0  0  0  0  0  0  0  0  0  0  0
    1.7780    0.9050   -1.2880 H   0  0  0  0  0  0  0  0  0  0  0  0
   -1.2921   -2.0998   -1.4704 H   0  0  0  0  0  0  0  0  0  0  0  0
    3.4628   -3.4686   -1.7779 H   0  0  0  0  0  0  0  0  0  0  0  0
    3.4101   -3.4300   -0.1608 H   0  0  0  0  0  0  0  0  0  0  0  0
    0.0815    2.3261   -2.6780 H   0  0  0  0  0  0  0  0  0  0  0  0
   -2.7689   -0.1807   -0.6181 H   0  0  0  0  0  0  0  0  0  0  0  0
   -4.5683    1.4126   -0.6010 H   0  0  0  0  0  0  0  0  0  0  0  0
   -4.3731    2.4748   -3.4396 H   0  0  0  0  0  0  0  0  0  0  0  0
   -5.2930    1.1254   -2.7990 H   0  0  0  0  0  0  0  0  0  0  0  0
   -6.7961    3.0031   -3.3640 H   0  0  0  0  0  0  0  0  0  0  0  0
   -6.8259    2.7024   -1.6300 H   0  0  0  0  0  0  0  0  0  0  0  0
   -6.5939    4.9283   -1.7147 H   0  0  0  0  0  0  0  0  0  0  0  0
   -3.7666    4.7565   -2.2609 H   0  0  0  0  0  0  0  0  0  0  0  0
   -4.5997    5.6070   -0.9737 H   0  0  0  0  0  0  0  0  0  0  0  0
   -3.3195    3.7444    0.0036 H   0  0  0  0  0  0  0  0  0  0  0  0
   -5.0395    3.4679    0.2061 H   0  0  0  0  0  0  0  0  0  0  0  0
  1  2  1  0
  2  3  1  0
  3  4  2  0
  4  5  1  0
  5  6  2  0
  6  7  1  0
  7  8  2  0
  8  9  1  0
  7 10  1  0
  4 11  1  0
  2 12  1  0
 12 13  1  0
 13 14  2  0
 14 15  1  0
 15 16  2  0
 16 17  1  0
 17 18  2  0
 18 19  1  0
 15 20  1  0
 20 21  1  0
 21 22  2  0
 22 23  1  0
 23 24  1  0
 23 25  1  0
 25 26  1  0
 26 27  1  0
 27 28  1  0
 28 29  1  0
 29 30  1  0
  8  3  1  0
 18 13  1  0
 24 20  2  0
 30 25  1  0
  1 31  1  0
  1 32  1  0
  1 33  1  0
  2 34  1  1
  5 35  1  0
  6 36  1  0
 14 37  1  0
 16 38  1  0
 19 39  1  0
 19 40  1  0
 21 41  1  0
 24 42  1  0
 25 43  1  0
 26 44  1  0
 26 45  1  0
 27 46  1  0
 27 47  1  0
 28 48  1  0
 29 49  1  0
 29 50  1  0
 30 51  1  0
 30 52  1  0
M  END
>  <energy_abs>  (11) 
39.5047045246453

>  <SMILES>  (11) 
C[C@H](c1c(ccc(c1Cl)F)Cl)Oc2cc(cnc2N)c3cnn(c3)C4CCNCC4

>  <cluster_no>  (11) 
11

>  <fda_drugs_id>  (11) 
KTEIFNKAUNYNJU-GFCCVEGCSA-N

>  <initial_conformation_id>  (11) 
222

>  <minimize_method>  (11) 
MMFF

$$$$

     RDKit          3D

 52 55  0  0  0  0  0  0  0  0999 V2000
    4.3569   -0.2062   -0.5209 C   0  0  0  0  0  0  0  0  0  0  0  0
    3.5442   -0.7535    0.6555 C   0  0  2  0  0  0  0  0  0  0  0  0
    4.4764   -1.2130    1.7774 C   0  0  0  0  0  0  0  0  0  0  0  0
    5.1815   -2.4395    1.7335 C   0  0  0  0  0  0  0  0  0  0  0  0
    6.0249   -2.8349    2.7839 C   0  0  0  0  0  0  0  0  0  0  0  0
    6.1989   -2.0185    3.8948 C   0  0  0  0  0  0  0  0  0  0  0  0
    5.5381   -0.8012    3.9473 C   0  0  0  0  0  0  0  0  0  0  0  0
    4.6926   -0.3898    2.9083 C   0  0  0  0  0  0  0  0  0  0  0  0
    3.9595    1.1739    3.0696 Cl  0  0  0  0  0  0  0  0  0  0  0  0
    5.7343   -0.0190    5.0194 F   0  0  0  0  0  0  0  0  0  0  0  0
    5.0982   -3.5390    0.3968 Cl  0  0  0  0  0  0  0  0  0  0  0  0
    2.7181   -1.8527    0.2567 O   0  0  0  0  0  0  0  0  0  0  0  0
    1.5450   -1.6412   -0.4168 C   0  0  0  0  0  0  0  0  0  0  0  0
    0.9609   -0.4036   -0.6893 C   0  0  0  0  0  0  0  0  0  0  0  0
   -0.2517   -0.3417   -1.3855 C   0  0  0  0  0  0  0  0  0  0  0  0
   -0.8200   -1.5489   -1.7784 C   0  0  0  0  0  0  0  0  0  0  0  0
   -0.2841   -2.7658   -1.5282 N   0  0  0  0  0  0  0  0  0  0  0  0
    0.8799   -2.8010   -0.8575 C   0  0  0  0  0  0  0  0  0  0  0  0
    1.4348   -4.0705   -0.5991 N   0  0  0  0  0  0  0  0  0  0  0  0
   -0.8746    0.9338   -1.6861 C   0  0  0  0  0  0  0  0  0  0  0  0
   -0.3123    2.2182   -1.8676 C   0  0  0  0  0  0  0  0  0  0  0  0
   -1.2294    3.1547   -2.1184 N   0  0  0  0  0  0  0  0  0  0  0  0
   -2.3923    2.4773   -2.0998 N   0  0  0  0  0  0  0  0  0  0  0  0
   -2.2296    1.1430   -1.8418 C   0  0  0  0  0  0  0  0  0  0  0  0
   -3.6409    3.1922   -2.3343 C   0  0  0  0  0  0  0  0  0  0  0  0
   -4.3737    2.6754   -3.5775 C   0  0  0  0  0  0  0  0  0  0  0  0
   -5.6897    3.4218   -3.7682 C   0  0  0  0  0  0  0  0  0  0  0  0
   -6.5372    3.3382   -2.5788 N   0  0  0  0  0  0  0  0  0  0  0  0
   -5.8661    3.8851   -1.3996 C   0  0  0  0  0  0  0  0  0  0  0  0
   -4.5577    3.1589   -1.1066 C   0  0  0  0  0  0  0  0  0  0  0  0
    4.9675   -0.9827   -0.9921 H   0  0  0  0  0  0  0  0  0  0  0  0
    3.7026    0.1832   -1.3069 H   0  0  0  0  0  0  0  0  0  0  0  0
    5.0214    0.6038   -0.2025 H   0  0  0  0  0  0  0  0  0  0  0  0
    2.8909    0.0283    1.0458 H   0  0  0  0  0  0  0  0  0  0  0  0
    6.5555   -3.7843    2.7352 H   0  0  0  0  0  0  0  0  0  0  0  0
    6.8503   -2.3161    4.7108 H   0  0  0  0  0  0  0  0  0  0  0  0
    1.4206    0.5207   -0.3609 H   0  0  0  0  0  0  0  0  0  0  0  0
   -1.7515   -1.5870   -2.3365 H   0  0  0  0  0  0  0  0  0  0  0  0
    2.3751   -4.0770   -0.9883 H   0  0  0  0  0  0  0  0  0  0  0  0
    1.5590   -4.1492    0.4068 H   0  0  0  0  0  0  0  0  0  0  0  0
    0.7287    2.5122   -1.8327 H   0  0  0  0  0  0  0  0  0  0  0  0
   -3.0789    0.4767   -1.7817 H   0  0  0  0  0  0  0  0  0  0  0  0
   -3.3609    4.2395   -2.5192 H   0  0  0  0  0  0  0  0  0  0  0  0
   -4.5755    1.6001   -3.4882 H   0  0  0  0  0  0  0  0  0  0  0  0
   -3.7444    2.8025   -4.4668 H   0  0  0  0  0  0  0  0  0  0  0  0
   -6.2312    2.9954   -4.6198 H   0  0  0  0  0  0  0  0  0  0  0  0
   -5.4996    4.4735   -4.0148 H   0  0  0  0  0  0  0  0  0  0  0  0
   -6.7953    2.3656   -2.4077 H   0  0  0  0  0  0  0  0  0  0  0  0
   -5.6841    4.9575   -1.5405 H   0  0  0  0  0  0  0  0  0  0  0  0
   -6.5354    3.7937   -0.5370 H   0  0  0  0  0  0  0  0  0  0  0  0
   -4.0587    3.6276   -0.2495 H   0  0  0  0  0  0  0  0  0  0  0  0
   -4.7740    2.1230   -0.8143 H   0  0  0  0  0  0  0  0  0  0  0  0
  1  2  1  0
  2  3  1  0
  3  4  2  0
  4  5  1  0
  5  6  2  0
  6  7  1  0
  7  8  2  0
  8  9  1  0
  7 10  1  0
  4 11  1  0
  2 12  1  0
 12 13  1  0
 13 14  2  0
 14 15  1  0
 15 16  2  0
 16 17  1  0
 17 18  2  0
 18 19  1  0
 15 20  1  0
 20 21  1  0
 21 22  2  0
 22 23  1  0
 23 24  1  0
 23 25  1  0
 25 26  1  0
 26 27  1  0
 27 28  1  0
 28 29  1  0
 29 30  1  0
  8  3  1  0
 18 13  1  0
 24 20  2  0
 30 25  1  0
  1 31  1  0
  1 32  1  0
  1 33  1  0
  2 34  1  1
  5 35  1  0
  6 36  1  0
 14 37  1  0
 16 38  1  0
 19 39  1  0
 19 40  1  0
 21 41  1  0
 24 42  1  0
 25 43  1  0
 26 44  1  0
 26 45  1  0
 27 46  1  0
 27 47  1  0
 28 48  1  0
 29 49  1  0
 29 50  1  0
 30 51  1  0
 30 52  1  0
M  END
>  <energy_abs>  (12) 
34.75158033070336

>  <SMILES>  (12) 
C[C@H](c1c(ccc(c1Cl)F)Cl)Oc2cc(cnc2N)c3cnn(c3)C4CCNCC4

>  <cluster_no>  (12) 
12

>  <fda_drugs_id>  (12) 
KTEIFNKAUNYNJU-GFCCVEGCSA-N

>  <initial_conformation_id>  (12) 
220

>  <minimize_method>  (12) 
MMFF

$$$$

     RDKit          3D

 52 55  0  0  0  0  0  0  0  0999 V2000
    1.5512   -1.8304    2.3676 C   0  0  0  0  0  0  0  0  0  0  0  0
    2.6130   -1.5280    1.3065 C   0  0  2  0  0  0  0  0  0  0  0  0
    3.8544   -2.3914    1.5347 C   0  0  0  0  0  0  0  0  0  0  0  0
    4.0673   -3.5532    0.7548 C   0  0  0  0  0  0  0  0  0  0  0  0
    5.1986   -4.3622    0.9347 C   0  0  0  0  0  0  0  0  0  0  0  0
    6.1409   -4.0435    1.9039 C   0  0  0  0  0  0  0  0  0  0  0  0
    5.9413   -2.9243    2.6984 C   0  0  0  0  0  0  0  0  0  0  0  0
    4.8158   -2.1041    2.5330 C   0  0  0  0  0  0  0  0  0  0  0  0
    4.6725   -0.7645    3.6254 Cl  0  0  0  0  0  0  0  0  0  0  0  0
    6.8554   -2.6489    3.6412 F   0  0  0  0  0  0  0  0  0  0  0  0
    2.9481   -4.0819   -0.4580 Cl  0  0  0  0  0  0  0  0  0  0  0  0
    2.9945   -0.1482    1.3219 O   0  0  0  0  0  0  0  0  0  0  0  0
    2.1948    0.8071    0.7541 C   0  0  0  0  0  0  0  0  0  0  0  0
    1.0357    0.5778    0.0113 C   0  0  0  0  0  0  0  0  0  0  0  0
    0.3146    1.6577   -0.5111 C   0  0  0  0  0  0  0  0  0  0  0  0
    0.8125    2.9321   -0.2601 C   0  0  0  0  0  0  0  0  0  0  0  0
    1.9330    3.1910    0.4529 N   0  0  0  0  0  0  0  0  0  0  0  0
    2.6064    2.1390    0.9484 C   0  0  0  0  0  0  0  0  0  0  0  0
    3.7721    2.4144    1.6902 N   0  0  0  0  0  0  0  0  0  0  0  0
   -0.8945    1.4429   -1.2851 C   0  0  0  0  0  0  0  0  0  0  0  0
   -1.3145    0.3349   -2.0573 C   0  0  0  0  0  0  0  0  0  0  0  0
   -2.5160    0.5132   -2.6107 N   0  0  0  0  0  0  0  0  0  0  0  0
   -2.8762    1.7443   -2.1993 N   0  0  0  0  0  0  0  0  0  0  0  0
   -1.9380    2.3388   -1.4003 C   0  0  0  0  0  0  0  0  0  0  0  0
   -4.1583    2.3151   -2.6063 C   0  0  0  0  0  0  0  0  0  0  0  0
   -4.1523    2.6574   -4.1030 C   0  0  0  0  0  0  0  0  0  0  0  0
   -5.5744    2.7823   -4.6318 C   0  0  0  0  0  0  0  0  0  0  0  0
   -6.3821    1.5776   -4.4473 N   0  0  0  0  0  0  0  0  0  0  0  0
   -5.8880    0.6664   -3.4127 C   0  0  0  0  0  0  0  0  0  0  0  0
   -5.3429    1.4213   -2.2070 C   0  0  0  0  0  0  0  0  0  0  0  0
    1.8862   -1.5549    3.3728 H   0  0  0  0  0  0  0  0  0  0  0  0
    1.2900   -2.8941    2.3754 H   0  0  0  0  0  0  0  0  0  0  0  0
    0.6359   -1.2587    2.1860 H   0  0  0  0  0  0  0  0  0  0  0  0
    2.2145   -1.7512    0.3156 H   0  0  0  0  0  0  0  0  0  0  0  0
    5.3468   -5.2478    0.3195 H   0  0  0  0  0  0  0  0  0  0  0  0
    7.0205   -4.6620    2.0538 H   0  0  0  0  0  0  0  0  0  0  0  0
    0.6678   -0.4262   -0.1616 H   0  0  0  0  0  0  0  0  0  0  0  0
    0.3219    3.8230   -0.6420 H   0  0  0  0  0  0  0  0  0  0  0  0
    4.5417    1.9208    1.2457 H   0  0  0  0  0  0  0  0  0  0  0  0
    3.6644    1.9782    2.6035 H   0  0  0  0  0  0  0  0  0  0  0  0
   -0.7938   -0.5954   -2.2444 H   0  0  0  0  0  0  0  0  0  0  0  0
   -2.1012    3.3239   -0.9852 H   0  0  0  0  0  0  0  0  0  0  0  0
   -4.2542    3.2507   -2.0382 H   0  0  0  0  0  0  0  0  0  0  0  0
   -3.6079    3.5958   -4.2634 H   0  0  0  0  0  0  0  0  0  0  0  0
   -3.6188    1.8949   -4.6855 H   0  0  0  0  0  0  0  0  0  0  0  0
   -6.0776    3.6152   -4.1255 H   0  0  0  0  0  0  0  0  0  0  0  0
   -5.5516    3.0401   -5.6969 H   0  0  0  0  0  0  0  0  0  0  0  0
   -6.4538    1.0657   -5.3274 H   0  0  0  0  0  0  0  0  0  0  0  0
   -5.1159    0.0107   -3.8323 H   0  0  0  0  0  0  0  0  0  0  0  0
   -6.7144    0.0202   -3.0975 H   0  0  0  0  0  0  0  0  0  0  0  0
   -5.0721    0.7175   -1.4107 H   0  0  0  0  0  0  0  0  0  0  0  0
   -6.1432    2.0523   -1.7962 H   0  0  0  0  0  0  0  0  0  0  0  0
  1  2  1  0
  2  3  1  0
  3  4  2  0
  4  5  1  0
  5  6  2  0
  6  7  1  0
  7  8  2  0
  8  9  1  0
  7 10  1  0
  4 11  1  0
  2 12  1  0
 12 13  1  0
 13 14  2  0
 14 15  1  0
 15 16  2  0
 16 17  1  0
 17 18  2  0
 18 19  1  0
 15 20  1  0
 20 21  1  0
 21 22  2  0
 22 23  1  0
 23 24  1  0
 23 25  1  0
 25 26  1  0
 26 27  1  0
 27 28  1  0
 28 29  1  0
 29 30  1  0
  8  3  1  0
 18 13  1  0
 24 20  2  0
 30 25  1  0
  1 31  1  0
  1 32  1  0
  1 33  1  0
  2 34  1  6
  5 35  1  0
  6 36  1  0
 14 37  1  0
 16 38  1  0
 19 39  1  0
 19 40  1  0
 21 41  1  0
 24 42  1  0
 25 43  1  0
 26 44  1  0
 26 45  1  0
 27 46  1  0
 27 47  1  0
 28 48  1  0
 29 49  1  0
 29 50  1  0
 30 51  1  0
 30 52  1  0
M  END
>  <energy_abs>  (13) 
38.23064778060673

>  <SMILES>  (13) 
C[C@H](c1c(ccc(c1Cl)F)Cl)Oc2cc(cnc2N)c3cnn(c3)C4CCNCC4

>  <cluster_no>  (13) 
13

>  <fda_drugs_id>  (13) 
KTEIFNKAUNYNJU-GFCCVEGCSA-N

>  <initial_conformation_id>  (13) 
199

>  <minimize_method>  (13) 
MMFF

$$$$

     RDKit          3D

 52 55  0  0  0  0  0  0  0  0999 V2000
    4.8726   -3.6334    0.3751 C   0  0  0  0  0  0  0  0  0  0  0  0
    4.0087   -2.4282   -0.0004 C   0  0  2  0  0  0  0  0  0  0  0  0
    3.9906   -1.3854    1.1127 C   0  0  0  0  0  0  0  0  0  0  0  0
    4.7605   -0.2053    0.9947 C   0  0  0  0  0  0  0  0  0  0  0  0
    4.7401    0.7878    1.9833 C   0  0  0  0  0  0  0  0  0  0  0  0
    3.9616    0.6264    3.1217 C   0  0  0  0  0  0  0  0  0  0  0  0
    3.2215   -0.5359    3.2742 C   0  0  0  0  0  0  0  0  0  0  0  0
    3.2308   -1.5393    2.2945 C   0  0  0  0  0  0  0  0  0  0  0  0
    2.2780   -2.9493    2.6222 Cl  0  0  0  0  0  0  0  0  0  0  0  0
    2.4799   -0.6704    4.3848 F   0  0  0  0  0  0  0  0  0  0  0  0
    5.7926    0.1028   -0.3597 Cl  0  0  0  0  0  0  0  0  0  0  0  0
    2.6956   -2.9283   -0.3353 O   0  0  0  0  0  0  0  0  0  0  0  0
    2.0556   -2.1312   -1.2507 C   0  0  0  0  0  0  0  0  0  0  0  0
    1.1424   -1.1827   -0.7903 C   0  0  0  0  0  0  0  0  0  0  0  0
    0.4367   -0.4077   -1.7088 C   0  0  0  0  0  0  0  0  0  0  0  0
    0.7002   -0.6350   -3.0564 C   0  0  0  0  0  0  0  0  0  0  0  0
    1.5635   -1.5698   -3.5289 N   0  0  0  0  0  0  0  0  0  0  0  0
    2.2135   -2.3272   -2.6288 C   0  0  0  0  0  0  0  0  0  0  0  0
    3.0420   -3.3451   -3.1261 N   0  0  0  0  0  0  0  0  0  0  0  0
   -0.5383    0.5682   -1.2645 C   0  0  0  0  0  0  0  0  0  0  0  0
   -0.6204    1.3183   -0.0692 C   0  0  0  0  0  0  0  0  0  0  0  0
   -1.7149    2.0799   -0.0113 N   0  0  0  0  0  0  0  0  0  0  0  0
   -2.3515    1.8134   -1.1674 N   0  0  0  0  0  0  0  0  0  0  0  0
   -1.6788    0.9209   -1.9564 C   0  0  0  0  0  0  0  0  0  0  0  0
   -3.6521    2.4129   -1.4529 C   0  0  0  0  0  0  0  0  0  0  0  0
   -3.5291    3.9184   -1.7270 C   0  0  0  0  0  0  0  0  0  0  0  0
   -4.8691    4.6084   -1.5075 C   0  0  0  0  0  0  0  0  0  0  0  0
   -5.3610    4.4767   -0.1368 N   0  0  0  0  0  0  0  0  0  0  0  0
   -4.8964    3.2806    0.5669 C   0  0  0  0  0  0  0  0  0  0  0  0
   -4.6899    2.0924   -0.3630 C   0  0  0  0  0  0  0  0  0  0  0  0
    5.8957   -3.3393    0.6314 H   0  0  0  0  0  0  0  0  0  0  0  0
    4.9146   -4.3362   -0.4666 H   0  0  0  0  0  0  0  0  0  0  0  0
    4.4550   -4.1955    1.2174 H   0  0  0  0  0  0  0  0  0  0  0  0
    4.4522   -2.0133   -0.9115 H   0  0  0  0  0  0  0  0  0  0  0  0
    5.3332    1.6925    1.8685 H   0  0  0  0  0  0  0  0  0  0  0  0
    3.9332    1.3896    3.8925 H   0  0  0  0  0  0  0  0  0  0  0  0
    0.9642   -1.0846    0.2761 H   0  0  0  0  0  0  0  0  0  0  0  0
    0.2088   -0.0584   -3.8366 H   0  0  0  0  0  0  0  0  0  0  0  0
    3.9925   -3.1988   -2.8126 H   0  0  0  0  0  0  0  0  0  0  0  0
    2.7250   -4.2259   -2.7285 H   0  0  0  0  0  0  0  0  0  0  0  0
    0.0694    1.3416    0.7648 H   0  0  0  0  0  0  0  0  0  0  0  0
   -2.0798    0.5983   -2.9082 H   0  0  0  0  0  0  0  0  0  0  0  0
   -3.9985    1.9234   -2.3745 H   0  0  0  0  0  0  0  0  0  0  0  0
   -3.1878    4.0798   -2.7570 H   0  0  0  0  0  0  0  0  0  0  0  0
   -2.7736    4.3831   -1.0808 H   0  0  0  0  0  0  0  0  0  0  0  0
   -5.6098    4.1890   -2.1986 H   0  0  0  0  0  0  0  0  0  0  0  0
   -4.7811    5.6736   -1.7456 H   0  0  0  0  0  0  0  0  0  0  0  0
   -6.3790    4.5246   -0.1277 H   0  0  0  0  0  0  0  0  0  0  0  0
   -3.9637    3.5160    1.0921 H   0  0  0  0  0  0  0  0  0  0  0  0
   -5.6241    3.0194    1.3423 H   0  0  0  0  0  0  0  0  0  0  0  0
   -5.6483    1.8524   -0.8420 H   0  0  0  0  0  0  0  0  0  0  0  0
   -4.4084    1.2051    0.2158 H   0  0  0  0  0  0  0  0  0  0  0  0
  1  2  1  0
  2  3  1  0
  3  4  2  0
  4  5  1  0
  5  6  2  0
  6  7  1  0
  7  8  2  0
  8  9  1  0
  7 10  1  0
  4 11  1  0
  2 12  1  0
 12 13  1  0
 13 14  2  0
 14 15  1  0
 15 16  2  0
 16 17  1  0
 17 18  2  0
 18 19  1  0
 15 20  1  0
 20 21  1  0
 21 22  2  0
 22 23  1  0
 23 24  1  0
 23 25  1  0
 25 26  1  0
 26 27  1  0
 27 28  1  0
 28 29  1  0
 29 30  1  0
  8  3  1  0
 18 13  1  0
 24 20  2  0
 30 25  1  0
  1 31  1  0
  1 32  1  0
  1 33  1  0
  2 34  1  6
  5 35  1  0
  6 36  1  0
 14 37  1  0
 16 38  1  0
 19 39  1  0
 19 40  1  0
 21 41  1  0
 24 42  1  0
 25 43  1  0
 26 44  1  0
 26 45  1  0
 27 46  1  0
 27 47  1  0
 28 48  1  0
 29 49  1  0
 29 50  1  0
 30 51  1  0
 30 52  1  0
M  END
>  <energy_abs>  (14) 
40.432537969006255

>  <SMILES>  (14) 
C[C@H](c1c(ccc(c1Cl)F)Cl)Oc2cc(cnc2N)c3cnn(c3)C4CCNCC4

>  <cluster_no>  (14) 
14

>  <fda_drugs_id>  (14) 
KTEIFNKAUNYNJU-GFCCVEGCSA-N

>  <initial_conformation_id>  (14) 
165

>  <minimize_method>  (14) 
MMFF

$$$$

     RDKit          3D

 52 55  0  0  0  0  0  0  0  0999 V2000
    1.6577   -2.2000    2.4887 C   0  0  0  0  0  0  0  0  0  0  0  0
    2.4522   -1.4327    1.4307 C   0  0  2  0  0  0  0  0  0  0  0  0
    3.8870   -1.9412    1.3251 C   0  0  0  0  0  0  0  0  0  0  0  0
    4.2734   -2.7678    0.2435 C   0  0  0  0  0  0  0  0  0  0  0  0
    5.5865   -3.2428    0.1143 C   0  0  0  0  0  0  0  0  0  0  0  0
    6.5464   -2.9165    1.0632 C   0  0  0  0  0  0  0  0  0  0  0  0
    6.1867   -2.1252    2.1436 C   0  0  0  0  0  0  0  0  0  0  0  0
    4.8789   -1.6406    2.2881 C   0  0  0  0  0  0  0  0  0  0  0  0
    4.5663   -0.6756    3.6935 Cl  0  0  0  0  0  0  0  0  0  0  0  0
    7.1275   -1.8345    3.0547 F   0  0  0  0  0  0  0  0  0  0  0  0
    3.1661   -3.2737   -0.9888 Cl  0  0  0  0  0  0  0  0  0  0  0  0
    2.4278   -0.0317    1.7650 O   0  0  0  0  0  0  0  0  0  0  0  0
    2.0827    0.7786    0.7142 C   0  0  0  0  0  0  0  0  0  0  0  0
    0.8018    0.7374    0.1618 C   0  0  0  0  0  0  0  0  0  0  0  0
    0.4755    1.6023   -0.8841 C   0  0  0  0  0  0  0  0  0  0  0  0
    1.4711    2.4797   -1.3063 C   0  0  0  0  0  0  0  0  0  0  0  0
    2.7133    2.5567   -0.7665 N   0  0  0  0  0  0  0  0  0  0  0  0
    3.0024    1.7244    0.2469 C   0  0  0  0  0  0  0  0  0  0  0  0
    4.2779    1.8272    0.8265 N   0  0  0  0  0  0  0  0  0  0  0  0
   -0.8323    1.5953   -1.5126 C   0  0  0  0  0  0  0  0  0  0  0  0
   -1.2399    2.0098   -2.8025 C   0  0  0  0  0  0  0  0  0  0  0  0
   -2.5491    1.8514   -3.0080 N   0  0  0  0  0  0  0  0  0  0  0  0
   -2.9950    1.3407   -1.8453 N   0  0  0  0  0  0  0  0  0  0  0  0
   -2.0030    1.1674   -0.9194 C   0  0  0  0  0  0  0  0  0  0  0  0
   -4.4074    1.0212   -1.6752 C   0  0  0  0  0  0  0  0  0  0  0  0
   -5.3062    2.2395   -1.9055 C   0  0  0  0  0  0  0  0  0  0  0  0
   -6.7754    1.8701   -1.6987 C   0  0  0  0  0  0  0  0  0  0  0  0
   -7.1614    0.5597   -2.2296 N   0  0  0  0  0  0  0  0  0  0  0  0
   -6.1959    0.0323   -3.1889 C   0  0  0  0  0  0  0  0  0  0  0  0
   -4.8308   -0.1788   -2.5399 C   0  0  0  0  0  0  0  0  0  0  0  0
    1.6496   -3.2746    2.2793 H   0  0  0  0  0  0  0  0  0  0  0  0
    0.6221   -1.8437    2.5126 H   0  0  0  0  0  0  0  0  0  0  0  0
    2.0549   -2.0507    3.4966 H   0  0  0  0  0  0  0  0  0  0  0  0
    1.9283   -1.5880    0.4835 H   0  0  0  0  0  0  0  0  0  0  0  0
    5.8643   -3.8731   -0.7287 H   0  0  0  0  0  0  0  0  0  0  0  0
    7.5661   -3.2779    0.9744 H   0  0  0  0  0  0  0  0  0  0  0  0
    0.0727    0.0347    0.5517 H   0  0  0  0  0  0  0  0  0  0  0  0
    1.3009    3.1917   -2.1097 H   0  0  0  0  0  0  0  0  0  0  0  0
    4.1513    1.9795    1.8253 H   0  0  0  0  0  0  0  0  0  0  0  0
    4.7476    0.9336    0.7362 H   0  0  0  0  0  0  0  0  0  0  0  0
   -0.6374    2.4149   -3.6054 H   0  0  0  0  0  0  0  0  0  0  0  0
   -2.2185    0.7733    0.0637 H   0  0  0  0  0  0  0  0  0  0  0  0
   -4.5180    0.7271   -0.6223 H   0  0  0  0  0  0  0  0  0  0  0  0
   -5.1687    2.6297   -2.9223 H   0  0  0  0  0  0  0  0  0  0  0  0
   -5.0310    3.0534   -1.2232 H   0  0  0  0  0  0  0  0  0  0  0  0
   -7.0086    1.8913   -0.6270 H   0  0  0  0  0  0  0  0  0  0  0  0
   -7.4057    2.6388   -2.1622 H   0  0  0  0  0  0  0  0  0  0  0  0
   -7.2857   -0.1040   -1.4649 H   0  0  0  0  0  0  0  0  0  0  0  0
   -6.5638   -0.9232   -3.5793 H   0  0  0  0  0  0  0  0  0  0  0  0
   -6.1170    0.7035   -4.0527 H   0  0  0  0  0  0  0  0  0  0  0  0
   -4.0973   -0.3989   -3.3255 H   0  0  0  0  0  0  0  0  0  0  0  0
   -4.8630   -1.0733   -1.9031 H   0  0  0  0  0  0  0  0  0  0  0  0
  1  2  1  0
  2  3  1  0
  3  4  2  0
  4  5  1  0
  5  6  2  0
  6  7  1  0
  7  8  2  0
  8  9  1  0
  7 10  1  0
  4 11  1  0
  2 12  1  0
 12 13  1  0
 13 14  2  0
 14 15  1  0
 15 16  2  0
 16 17  1  0
 17 18  2  0
 18 19  1  0
 15 20  1  0
 20 21  1  0
 21 22  2  0
 22 23  1  0
 23 24  1  0
 23 25  1  0
 25 26  1  0
 26 27  1  0
 27 28  1  0
 28 29  1  0
 29 30  1  0
  8  3  1  0
 18 13  1  0
 24 20  2  0
 30 25  1  0
  1 31  1  0
  1 32  1  0
  1 33  1  0
  2 34  1  6
  5 35  1  0
  6 36  1  0
 14 37  1  0
 16 38  1  0
 19 39  1  0
 19 40  1  0
 21 41  1  0
 24 42  1  0
 25 43  1  0
 26 44  1  0
 26 45  1  0
 27 46  1  0
 27 47  1  0
 28 48  1  0
 29 49  1  0
 29 50  1  0
 30 51  1  0
 30 52  1  0
M  END
>  <energy_abs>  (15) 
41.05817081971527

>  <SMILES>  (15) 
C[C@H](c1c(ccc(c1Cl)F)Cl)Oc2cc(cnc2N)c3cnn(c3)C4CCNCC4

>  <cluster_no>  (15) 
15

>  <fda_drugs_id>  (15) 
KTEIFNKAUNYNJU-GFCCVEGCSA-N

>  <initial_conformation_id>  (15) 
135

>  <minimize_method>  (15) 
MMFF

$$$$

     RDKit          3D

 52 55  0  0  0  0  0  0  0  0999 V2000
    3.7140    1.8364    1.5293 C   0  0  0  0  0  0  0  0  0  0  0  0
    3.2986    0.4455    1.0441 C   0  0  2  0  0  0  0  0  0  0  0  0
    4.1541   -0.6441    1.6802 C   0  0  0  0  0  0  0  0  0  0  0  0
    3.6250   -1.4551    2.7119 C   0  0  0  0  0  0  0  0  0  0  0  0
    4.3844   -2.4719    3.3095 C   0  0  0  0  0  0  0  0  0  0  0  0
    5.6908   -2.7039    2.8991 C   0  0  0  0  0  0  0  0  0  0  0  0
    6.2345   -1.9132    1.8977 C   0  0  0  0  0  0  0  0  0  0  0  0
    5.4902   -0.8916    1.2899 C   0  0  0  0  0  0  0  0  0  0  0  0
    6.2997    0.0296    0.0635 Cl  0  0  0  0  0  0  0  0  0  0  0  0
    7.5065   -2.1421    1.5338 F   0  0  0  0  0  0  0  0  0  0  0  0
    2.0229   -1.2461    3.3377 Cl  0  0  0  0  0  0  0  0  0  0  0  0
    3.3726    0.4294   -0.3957 O   0  0  0  0  0  0  0  0  0  0  0  0
    2.3473   -0.2964   -0.9475 C   0  0  0  0  0  0  0  0  0  0  0  0
    1.0966    0.2970   -1.1140 C   0  0  0  0  0  0  0  0  0  0  0  0
    0.0628   -0.4362   -1.6967 C   0  0  0  0  0  0  0  0  0  0  0  0
    0.3636   -1.7335   -2.1060 C   0  0  0  0  0  0  0  0  0  0  0  0
    1.5811   -2.3221   -1.9832 N   0  0  0  0  0  0  0  0  0  0  0  0
    2.5595   -1.5934   -1.4207 C   0  0  0  0  0  0  0  0  0  0  0  0
    3.7925   -2.2295   -1.2796 N   0  0  0  0  0  0  0  0  0  0  0  0
   -1.2657    0.1164   -1.8744 C   0  0  0  0  0  0  0  0  0  0  0  0
   -2.2687   -0.1708   -2.8291 C   0  0  0  0  0  0  0  0  0  0  0  0
   -3.3810    0.5434   -2.6412 N   0  0  0  0  0  0  0  0  0  0  0  0
   -3.0999    1.2932   -1.5587 N   0  0  0  0  0  0  0  0  0  0  0  0
   -1.8431    1.0737   -1.0651 C   0  0  0  0  0  0  0  0  0  0  0  0
   -4.0917    2.2156   -1.0205 C   0  0  0  0  0  0  0  0  0  0  0  0
   -5.3639    1.4899   -0.5675 C   0  0  0  0  0  0  0  0  0  0  0  0
   -6.3881    2.4895   -0.0413 C   0  0  0  0  0  0  0  0  0  0  0  0
   -6.6920    3.5276   -1.0265 N   0  0  0  0  0  0  0  0  0  0  0  0
   -5.4903    4.2603   -1.4282 C   0  0  0  0  0  0  0  0  0  0  0  0
   -4.4275    3.3350   -2.0121 C   0  0  0  0  0  0  0  0  0  0  0  0
    4.7259    2.1046    1.2127 H   0  0  0  0  0  0  0  0  0  0  0  0
    3.0491    2.5960    1.1037 H   0  0  0  0  0  0  0  0  0  0  0  0
    3.6669    1.9079    2.6206 H   0  0  0  0  0  0  0  0  0  0  0  0
    2.2498    0.3375    1.3393 H   0  0  0  0  0  0  0  0  0  0  0  0
    3.9569   -3.0875    4.0989 H   0  0  0  0  0  0  0  0  0  0  0  0
    6.2890   -3.4873    3.3543 H   0  0  0  0  0  0  0  0  0  0  0  0
    0.9480    1.3239   -0.7971 H   0  0  0  0  0  0  0  0  0  0  0  0
   -0.3894   -2.3756   -2.5545 H   0  0  0  0  0  0  0  0  0  0  0  0
    4.5435   -1.6265   -1.6025 H   0  0  0  0  0  0  0  0  0  0  0  0
    3.7432   -3.1088   -1.7855 H   0  0  0  0  0  0  0  0  0  0  0  0
   -2.2361   -0.8677   -3.6568 H   0  0  0  0  0  0  0  0  0  0  0  0
   -1.4845    1.5977   -0.1894 H   0  0  0  0  0  0  0  0  0  0  0  0
   -3.6287    2.6733   -0.1345 H   0  0  0  0  0  0  0  0  0  0  0  0
   -5.8026    0.9243   -1.4003 H   0  0  0  0  0  0  0  0  0  0  0  0
   -5.1249    0.7591    0.2151 H   0  0  0  0  0  0  0  0  0  0  0  0
   -7.3144    1.9625    0.2146 H   0  0  0  0  0  0  0  0  0  0  0  0
   -6.0270    2.9525    0.8855 H   0  0  0  0  0  0  0  0  0  0  0  0
   -7.1097    3.0931   -1.8516 H   0  0  0  0  0  0  0  0  0  0  0  0
   -5.0864    4.8076   -0.5669 H   0  0  0  0  0  0  0  0  0  0  0  0
   -5.7674    5.0147   -2.1734 H   0  0  0  0  0  0  0  0  0  0  0  0
   -3.5253    3.9121   -2.2509 H   0  0  0  0  0  0  0  0  0  0  0  0
   -4.7901    2.9148   -2.9600 H   0  0  0  0  0  0  0  0  0  0  0  0
  1  2  1  0
  2  3  1  0
  3  4  2  0
  4  5  1  0
  5  6  2  0
  6  7  1  0
  7  8  2  0
  8  9  1  0
  7 10  1  0
  4 11  1  0
  2 12  1  0
 12 13  1  0
 13 14  2  0
 14 15  1  0
 15 16  2  0
 16 17  1  0
 17 18  2  0
 18 19  1  0
 15 20  1  0
 20 21  1  0
 21 22  2  0
 22 23  1  0
 23 24  1  0
 23 25  1  0
 25 26  1  0
 26 27  1  0
 27 28  1  0
 28 29  1  0
 29 30  1  0
  8  3  1  0
 18 13  1  0
 24 20  2  0
 30 25  1  0
  1 31  1  0
  1 32  1  0
  1 33  1  0
  2 34  1  6
  5 35  1  0
  6 36  1  0
 14 37  1  0
 16 38  1  0
 19 39  1  0
 19 40  1  0
 21 41  1  0
 24 42  1  0
 25 43  1  0
 26 44  1  0
 26 45  1  0
 27 46  1  0
 27 47  1  0
 28 48  1  0
 29 49  1  0
 29 50  1  0
 30 51  1  0
 30 52  1  0
M  END
>  <energy_abs>  (16) 
23.03659584819205

>  <SMILES>  (16) 
C[C@H](c1c(ccc(c1Cl)F)Cl)Oc2cc(cnc2N)c3cnn(c3)C4CCNCC4

>  <cluster_no>  (16) 
16

>  <fda_drugs_id>  (16) 
KTEIFNKAUNYNJU-GFCCVEGCSA-N

>  <initial_conformation_id>  (16) 
104

>  <minimize_method>  (16) 
MMFF

$$$$

     RDKit          3D

 52 55  0  0  0  0  0  0  0  0999 V2000
    5.6988   -1.9736    0.4003 C   0  0  0  0  0  0  0  0  0  0  0  0
    4.4536   -1.1690    0.0188 C   0  0  2  0  0  0  0  0  0  0  0  0
    3.7362   -0.6435    1.2585 C   0  0  0  0  0  0  0  0  0  0  0  0
    3.8560    0.7170    1.6267 C   0  0  0  0  0  0  0  0  0  0  0  0
    3.2049    1.2325    2.7570 C   0  0  0  0  0  0  0  0  0  0  0  0
    2.4199    0.4064    3.5505 C   0  0  0  0  0  0  0  0  0  0  0  0
    2.2984   -0.9343    3.2162 C   0  0  0  0  0  0  0  0  0  0  0  0
    2.9471   -1.4677    2.0933 C   0  0  0  0  0  0  0  0  0  0  0  0
    2.7230   -3.1601    1.8018 Cl  0  0  0  0  0  0  0  0  0  0  0  0
    1.5357   -1.7122    3.9988 F   0  0  0  0  0  0  0  0  0  0  0  0
    4.8204    1.8443    0.7339 Cl  0  0  0  0  0  0  0  0  0  0  0  0
    3.6171   -2.0080   -0.8053 O   0  0  0  0  0  0  0  0  0  0  0  0
    2.8974   -1.2725   -1.7140 C   0  0  0  0  0  0  0  0  0  0  0  0
    1.6126   -0.8482   -1.3762 C   0  0  0  0  0  0  0  0  0  0  0  0
    0.8633   -0.1099   -2.2930 C   0  0  0  0  0  0  0  0  0  0  0  0
    1.4653    0.1379   -3.5255 C   0  0  0  0  0  0  0  0  0  0  0  0
    2.6992   -0.2970   -3.8911 N   0  0  0  0  0  0  0  0  0  0  0  0
    3.3960   -1.0136   -2.9956 C   0  0  0  0  0  0  0  0  0  0  0  0
    4.6520   -1.4976   -3.3928 N   0  0  0  0  0  0  0  0  0  0  0  0
   -0.4753    0.3750   -1.9931 C   0  0  0  0  0  0  0  0  0  0  0  0
   -1.4308    1.0258   -2.8118 C   0  0  0  0  0  0  0  0  0  0  0  0
   -2.5587    1.3236   -2.1627 N   0  0  0  0  0  0  0  0  0  0  0  0
   -2.3416    0.8604   -0.9188 N   0  0  0  0  0  0  0  0  0  0  0  0
   -1.1071    0.2885   -0.7676 C   0  0  0  0  0  0  0  0  0  0  0  0
   -3.3628    0.9992    0.1158 C   0  0  0  0  0  0  0  0  0  0  0  0
   -3.3813    2.4282    0.6763 C   0  0  0  0  0  0  0  0  0  0  0  0
   -4.7206    2.7210    1.3394 C   0  0  0  0  0  0  0  0  0  0  0  0
   -5.8439    2.6340    0.4091 N   0  0  0  0  0  0  0  0  0  0  0  0
   -5.6381    1.7155   -0.7117 C   0  0  0  0  0  0  0  0  0  0  0  0
   -4.7519    0.5303   -0.3485 C   0  0  0  0  0  0  0  0  0  0  0  0
    6.3886   -1.3775    1.0064 H   0  0  0  0  0  0  0  0  0  0  0  0
    5.4511   -2.8824    0.9573 H   0  0  0  0  0  0  0  0  0  0  0  0
    6.2257   -2.3021   -0.5025 H   0  0  0  0  0  0  0  0  0  0  0  0
    4.8153   -0.3431   -0.6028 H   0  0  0  0  0  0  0  0  0  0  0  0
    3.3100    2.2831    3.0217 H   0  0  0  0  0  0  0  0  0  0  0  0
    1.9075    0.7938    4.4253 H   0  0  0  0  0  0  0  0  0  0  0  0
    1.2097   -1.1130   -0.4056 H   0  0  0  0  0  0  0  0  0  0  0  0
    0.9654    0.7105   -4.3017 H   0  0  0  0  0  0  0  0  0  0  0  0
    4.6566   -2.5052   -3.2523 H   0  0  0  0  0  0  0  0  0  0  0  0
    5.3699   -1.1081   -2.7933 H   0  0  0  0  0  0  0  0  0  0  0  0
   -1.3569    1.2972   -3.8568 H   0  0  0  0  0  0  0  0  0  0  0  0
   -0.8006   -0.1175    0.1857 H   0  0  0  0  0  0  0  0  0  0  0  0
   -3.0516    0.3171    0.9195 H   0  0  0  0  0  0  0  0  0  0  0  0
   -2.5676    2.5495    1.4023 H   0  0  0  0  0  0  0  0  0  0  0  0
   -3.1968    3.1686   -0.1139 H   0  0  0  0  0  0  0  0  0  0  0  0
   -4.7055    3.7241    1.7785 H   0  0  0  0  0  0  0  0  0  0  0  0
   -4.8781    2.0157    2.1652 H   0  0  0  0  0  0  0  0  0  0  0  0
   -6.6964    2.3951    0.9154 H   0  0  0  0  0  0  0  0  0  0  0  0
   -6.6134    1.3557   -1.0566 H   0  0  0  0  0  0  0  0  0  0  0  0
   -5.2028    2.2713   -1.5502 H   0  0  0  0  0  0  0  0  0  0  0  0
   -5.2312   -0.0260    0.4685 H   0  0  0  0  0  0  0  0  0  0  0  0
   -4.6847   -0.1668   -1.1919 H   0  0  0  0  0  0  0  0  0  0  0  0
  1  2  1  0
  2  3  1  0
  3  4  2  0
  4  5  1  0
  5  6  2  0
  6  7  1  0
  7  8  2  0
  8  9  1  0
  7 10  1  0
  4 11  1  0
  2 12  1  0
 12 13  1  0
 13 14  2  0
 14 15  1  0
 15 16  2  0
 16 17  1  0
 17 18  2  0
 18 19  1  0
 15 20  1  0
 20 21  1  0
 21 22  2  0
 22 23  1  0
 23 24  1  0
 23 25  1  0
 25 26  1  0
 26 27  1  0
 27 28  1  0
 28 29  1  0
 29 30  1  0
  8  3  1  0
 18 13  1  0
 24 20  2  0
 30 25  1  0
  1 31  1  0
  1 32  1  0
  1 33  1  0
  2 34  1  6
  5 35  1  0
  6 36  1  0
 14 37  1  0
 16 38  1  0
 19 39  1  0
 19 40  1  0
 21 41  1  0
 24 42  1  0
 25 43  1  0
 26 44  1  0
 26 45  1  0
 27 46  1  0
 27 47  1  0
 28 48  1  0
 29 49  1  0
 29 50  1  0
 30 51  1  0
 30 52  1  0
M  END
>  <energy_abs>  (17) 
39.9831532802796

>  <SMILES>  (17) 
C[C@H](c1c(ccc(c1Cl)F)Cl)Oc2cc(cnc2N)c3cnn(c3)C4CCNCC4

>  <cluster_no>  (17) 
17

>  <fda_drugs_id>  (17) 
KTEIFNKAUNYNJU-GFCCVEGCSA-N

>  <initial_conformation_id>  (17) 
103

>  <minimize_method>  (17) 
MMFF

$$$$

     RDKit          3D

 52 55  0  0  0  0  0  0  0  0999 V2000
    3.7769   -1.9071   -1.6828 C   0  0  0  0  0  0  0  0  0  0  0  0
    3.4217   -1.1390   -0.4072 C   0  0  2  0  0  0  0  0  0  0  0  0
    4.6592   -0.8788    0.4444 C   0  0  0  0  0  0  0  0  0  0  0  0
    5.2483    0.4070    0.4717 C   0  0  0  0  0  0  0  0  0  0  0  0
    6.3750    0.6824    1.2602 C   0  0  0  0  0  0  0  0  0  0  0  0
    6.9480   -0.3166    2.0361 C   0  0  0  0  0  0  0  0  0  0  0  0
    6.3977   -1.5895    2.0126 C   0  0  0  0  0  0  0  0  0  0  0  0
    5.2734   -1.8829    1.2278 C   0  0  0  0  0  0  0  0  0  0  0  0
    4.7039   -3.5199    1.2773 Cl  0  0  0  0  0  0  0  0  0  0  0  0
    6.9759   -2.5414    2.7613 F   0  0  0  0  0  0  0  0  0  0  0  0
    4.6514    1.7292   -0.4763 Cl  0  0  0  0  0  0  0  0  0  0  0  0
    2.4157   -1.8902    0.3025 O   0  0  0  0  0  0  0  0  0  0  0  0
    1.4554   -1.0707    0.8384 C   0  0  0  0  0  0  0  0  0  0  0  0
    0.3673   -0.6927    0.0522 C   0  0  0  0  0  0  0  0  0  0  0  0
   -0.6304    0.1118    0.6041 C   0  0  0  0  0  0  0  0  0  0  0  0
   -0.4761    0.4767    1.9409 C   0  0  0  0  0  0  0  0  0  0  0  0
    0.5597    0.0992    2.7342 N   0  0  0  0  0  0  0  0  0  0  0  0
    1.5014   -0.6827    2.1797 C   0  0  0  0  0  0  0  0  0  0  0  0
    2.5596   -1.0497    3.0104 N   0  0  0  0  0  0  0  0  0  0  0  0
   -1.7845    0.5442   -0.1608 C   0  0  0  0  0  0  0  0  0  0  0  0
   -3.0827    0.9189    0.2579 C   0  0  0  0  0  0  0  0  0  0  0  0
   -3.8729    1.2736   -0.7578 N   0  0  0  0  0  0  0  0  0  0  0  0
   -3.0845    1.1291   -1.8401 N   0  0  0  0  0  0  0  0  0  0  0  0
   -1.8239    0.6950   -1.5322 C   0  0  0  0  0  0  0  0  0  0  0  0
   -3.5994    1.4289   -3.1743 C   0  0  0  0  0  0  0  0  0  0  0  0
   -4.8541    0.6054   -3.5078 C   0  0  0  0  0  0  0  0  0  0  0  0
   -6.1109    1.4589   -3.3986 C   0  0  0  0  0  0  0  0  0  0  0  0
   -6.0883    2.5823   -4.3384 N   0  0  0  0  0  0  0  0  0  0  0  0
   -4.7787    3.2124   -4.4983 C   0  0  0  0  0  0  0  0  0  0  0  0
   -3.8194    2.9388   -3.3481 C   0  0  0  0  0  0  0  0  0  0  0  0
    4.5314   -1.3758   -2.2721 H   0  0  0  0  0  0  0  0  0  0  0  0
    4.1532   -2.9125   -1.4717 H   0  0  0  0  0  0  0  0  0  0  0  0
    2.8827   -2.0387   -2.3026 H   0  0  0  0  0  0  0  0  0  0  0  0
    2.9772   -0.1968   -0.7458 H   0  0  0  0  0  0  0  0  0  0  0  0
    6.8088    1.6805    1.2714 H   0  0  0  0  0  0  0  0  0  0  0  0
    7.8177   -0.1158    2.6536 H   0  0  0  0  0  0  0  0  0  0  0  0
    0.3051   -1.0450   -0.9721 H   0  0  0  0  0  0  0  0  0  0  0  0
   -1.2009    1.1127    2.4429 H   0  0  0  0  0  0  0  0  0  0  0  0
    2.3265   -0.7453    3.9515 H   0  0  0  0  0  0  0  0  0  0  0  0
    2.7251   -2.0503    2.9481 H   0  0  0  0  0  0  0  0  0  0  0  0
   -3.4898    0.9445    1.2607 H   0  0  0  0  0  0  0  0  0  0  0  0
   -1.0800    0.5457   -2.3021 H   0  0  0  0  0  0  0  0  0  0  0  0
   -2.8103    1.1112   -3.8697 H   0  0  0  0  0  0  0  0  0  0  0  0
   -4.9409   -0.2812   -2.8680 H   0  0  0  0  0  0  0  0  0  0  0  0
   -4.7714    0.2307   -4.5372 H   0  0  0  0  0  0  0  0  0  0  0  0
   -6.2286    1.8328   -2.3748 H   0  0  0  0  0  0  0  0  0  0  0  0
   -6.9926    0.8461   -3.6130 H   0  0  0  0  0  0  0  0  0  0  0  0
   -6.7763    3.2741   -4.0378 H   0  0  0  0  0  0  0  0  0  0  0  0
   -4.3353    2.8513   -5.4339 H   0  0  0  0  0  0  0  0  0  0  0  0
   -4.9128    4.2935   -4.6194 H   0  0  0  0  0  0  0  0  0  0  0  0
   -2.8574    3.4339   -3.5336 H   0  0  0  0  0  0  0  0  0  0  0  0
   -4.2209    3.3920   -2.4318 H   0  0  0  0  0  0  0  0  0  0  0  0
  1  2  1  0
  2  3  1  0
  3  4  2  0
  4  5  1  0
  5  6  2  0
  6  7  1  0
  7  8  2  0
  8  9  1  0
  7 10  1  0
  4 11  1  0
  2 12  1  0
 12 13  1  0
 13 14  2  0
 14 15  1  0
 15 16  2  0
 16 17  1  0
 17 18  2  0
 18 19  1  0
 15 20  1  0
 20 21  1  0
 21 22  2  0
 22 23  1  0
 23 24  1  0
 23 25  1  0
 25 26  1  0
 26 27  1  0
 27 28  1  0
 28 29  1  0
 29 30  1  0
  8  3  1  0
 18 13  1  0
 24 20  2  0
 30 25  1  0
  1 31  1  0
  1 32  1  0
  1 33  1  0
  2 34  1  6
  5 35  1  0
  6 36  1  0
 14 37  1  0
 16 38  1  0
 19 39  1  0
 19 40  1  0
 21 41  1  0
 24 42  1  0
 25 43  1  0
 26 44  1  0
 26 45  1  0
 27 46  1  0
 27 47  1  0
 28 48  1  0
 29 49  1  0
 29 50  1  0
 30 51  1  0
 30 52  1  0
M  END
>  <energy_abs>  (18) 
27.05608525643926

>  <SMILES>  (18) 
C[C@H](c1c(ccc(c1Cl)F)Cl)Oc2cc(cnc2N)c3cnn(c3)C4CCNCC4

>  <cluster_no>  (18) 
18

>  <fda_drugs_id>  (18) 
KTEIFNKAUNYNJU-GFCCVEGCSA-N

>  <initial_conformation_id>  (18) 
92

>  <minimize_method>  (18) 
MMFF

$$$$

     RDKit          3D

 52 55  0  0  0  0  0  0  0  0999 V2000
    3.0557    0.5294    2.2811 C   0  0  0  0  0  0  0  0  0  0  0  0
    3.3952   -0.2840    1.0290 C   0  0  2  0  0  0  0  0  0  0  0  0
    4.7016   -1.0529    1.2322 C   0  0  0  0  0  0  0  0  0  0  0  0
    5.9735   -0.4379    1.1457 C   0  0  0  0  0  0  0  0  0  0  0  0
    7.1545   -1.1744    1.3301 C   0  0  0  0  0  0  0  0  0  0  0  0
    7.1015   -2.5331    1.6173 C   0  0  0  0  0  0  0  0  0  0  0  0
    5.8658   -3.1506    1.7322 C   0  0  0  0  0  0  0  0  0  0  0  0
    4.6765   -2.4316    1.5521 C   0  0  0  0  0  0  0  0  0  0  0  0
    3.1942   -3.3056    1.7689 Cl  0  0  0  0  0  0  0  0  0  0  0  0
    5.8356   -4.4585    2.0300 F   0  0  0  0  0  0  0  0  0  0  0  0
    6.1951    1.2533    0.8383 Cl  0  0  0  0  0  0  0  0  0  0  0  0
    3.5242    0.5542   -0.1250 O   0  0  0  0  0  0  0  0  0  0  0  0
    2.4161    1.0613   -0.7493 C   0  0  0  0  0  0  0  0  0  0  0  0
    1.0908    0.7078   -0.4927 C   0  0  0  0  0  0  0  0  0  0  0  0
    0.0539    1.3048   -1.2195 C   0  0  0  0  0  0  0  0  0  0  0  0
    0.4146    2.2421   -2.1824 C   0  0  0  0  0  0  0  0  0  0  0  0
    1.6882    2.6045   -2.4617 N   0  0  0  0  0  0  0  0  0  0  0  0
    2.6664    2.0178   -1.7509 C   0  0  0  0  0  0  0  0  0  0  0  0
    3.9913    2.3951   -2.0473 N   0  0  0  0  0  0  0  0  0  0  0  0
   -1.3323    0.9546   -0.9666 C   0  0  0  0  0  0  0  0  0  0  0  0
   -1.9571    0.4272    0.1876 C   0  0  0  0  0  0  0  0  0  0  0  0
   -3.2646    0.2200    0.0211 N   0  0  0  0  0  0  0  0  0  0  0  0
   -3.4934    0.6213   -1.2429 N   0  0  0  0  0  0  0  0  0  0  0  0
   -2.3641    1.0646   -1.8769 C   0  0  0  0  0  0  0  0  0  0  0  0
   -4.8375    0.5576   -1.8109 C   0  0  0  0  0  0  0  0  0  0  0  0
   -5.4801   -0.8314   -1.6581 C   0  0  0  0  0  0  0  0  0  0  0  0
   -6.4876   -0.8481   -0.5148 C   0  0  0  0  0  0  0  0  0  0  0  0
   -7.5742    0.1148   -0.7021 N   0  0  0  0  0  0  0  0  0  0  0  0
   -7.1956    1.3288   -1.4225 C   0  0  0  0  0  0  0  0  0  0  0  0
   -5.7233    1.6812   -1.2533 C   0  0  0  0  0  0  0  0  0  0  0  0
    3.7868    1.3233    2.4632 H   0  0  0  0  0  0  0  0  0  0  0  0
    2.0856    1.0263    2.1795 H   0  0  0  0  0  0  0  0  0  0  0  0
    3.0175   -0.1080    3.1716 H   0  0  0  0  0  0  0  0  0  0  0  0
    2.5977   -1.0013    0.8305 H   0  0  0  0  0  0  0  0  0  0  0  0
    8.1245   -0.6852    1.2555 H   0  0  0  0  0  0  0  0  0  0  0  0
    8.0098   -3.1099    1.7626 H   0  0  0  0  0  0  0  0  0  0  0  0
    0.8425   -0.0364    0.2545 H   0  0  0  0  0  0  0  0  0  0  0  0
   -0.3282    2.7625   -2.7811 H   0  0  0  0  0  0  0  0  0  0  0  0
    4.4973    1.5517   -2.3044 H   0  0  0  0  0  0  0  0  0  0  0  0
    4.4195    2.7125   -1.1805 H   0  0  0  0  0  0  0  0  0  0  0  0
   -1.5162    0.1881    1.1472 H   0  0  0  0  0  0  0  0  0  0  0  0
   -2.3975    1.4048   -2.9026 H   0  0  0  0  0  0  0  0  0  0  0  0
   -4.7032    0.7279   -2.8882 H   0  0  0  0  0  0  0  0  0  0  0  0
   -4.7260   -1.6138   -1.5112 H   0  0  0  0  0  0  0  0  0  0  0  0
   -6.0049   -1.0853   -2.5893 H   0  0  0  0  0  0  0  0  0  0  0  0
   -5.9852   -0.6358    0.4362 H   0  0  0  0  0  0  0  0  0  0  0  0
   -6.9177   -1.8510   -0.4154 H   0  0  0  0  0  0  0  0  0  0  0  0
   -8.3707   -0.3268   -1.1608 H   0  0  0  0  0  0  0  0  0  0  0  0
   -7.4165    1.2006   -2.4897 H   0  0  0  0  0  0  0  0  0  0  0  0
   -7.8190    2.1565   -1.0678 H   0  0  0  0  0  0  0  0  0  0  0  0
   -5.4990    2.6203   -1.7741 H   0  0  0  0  0  0  0  0  0  0  0  0
   -5.5134    1.8651   -0.1909 H   0  0  0  0  0  0  0  0  0  0  0  0
  1  2  1  0
  2  3  1  0
  3  4  2  0
  4  5  1  0
  5  6  2  0
  6  7  1  0
  7  8  2  0
  8  9  1  0
  7 10  1  0
  4 11  1  0
  2 12  1  0
 12 13  1  0
 13 14  2  0
 14 15  1  0
 15 16  2  0
 16 17  1  0
 17 18  2  0
 18 19  1  0
 15 20  1  0
 20 21  1  0
 21 22  2  0
 22 23  1  0
 23 24  1  0
 23 25  1  0
 25 26  1  0
 26 27  1  0
 27 28  1  0
 28 29  1  0
 29 30  1  0
  8  3  1  0
 18 13  1  0
 24 20  2  0
 30 25  1  0
  1 31  1  0
  1 32  1  0
  1 33  1  0
  2 34  1  6
  5 35  1  0
  6 36  1  0
 14 37  1  0
 16 38  1  0
 19 39  1  0
 19 40  1  0
 21 41  1  0
 24 42  1  0
 25 43  1  0
 26 44  1  0
 26 45  1  0
 27 46  1  0
 27 47  1  0
 28 48  1  0
 29 49  1  0
 29 50  1  0
 30 51  1  0
 30 52  1  0
M  END
>  <energy_abs>  (19) 
39.56611539161707

>  <SMILES>  (19) 
C[C@H](c1c(ccc(c1Cl)F)Cl)Oc2cc(cnc2N)c3cnn(c3)C4CCNCC4

>  <cluster_no>  (19) 
19

>  <fda_drugs_id>  (19) 
KTEIFNKAUNYNJU-GFCCVEGCSA-N

>  <initial_conformation_id>  (19) 
61

>  <minimize_method>  (19) 
MMFF

$$$$

     RDKit          3D

 52 55  0  0  0  0  0  0  0  0999 V2000
    4.9433   -0.9002   -0.6138 C   0  0  0  0  0  0  0  0  0  0  0  0
    3.8016   -1.0371    0.3956 C   0  0  2  0  0  0  0  0  0  0  0  0
    4.2729   -1.7638    1.6526 C   0  0  0  0  0  0  0  0  0  0  0  0
    4.6057   -1.0260    2.8129 C   0  0  0  0  0  0  0  0  0  0  0  0
    5.0187   -1.6586    3.9941 C   0  0  0  0  0  0  0  0  0  0  0  0
    5.1185   -3.0418    4.0495 C   0  0  0  0  0  0  0  0  0  0  0  0
    4.8240   -3.7849    2.9155 C   0  0  0  0  0  0  0  0  0  0  0  0
    4.4140   -3.1679    1.7244 C   0  0  0  0  0  0  0  0  0  0  0  0
    4.1198   -4.2163    0.3760 Cl  0  0  0  0  0  0  0  0  0  0  0  0
    4.9492   -5.1189    2.9859 F   0  0  0  0  0  0  0  0  0  0  0  0
    4.5589    0.7054    2.8644 Cl  0  0  0  0  0  0  0  0  0  0  0  0
    2.7137   -1.7200   -0.2600 O   0  0  0  0  0  0  0  0  0  0  0  0
    1.5168   -1.0863   -0.0526 C   0  0  0  0  0  0  0  0  0  0  0  0
    1.0743   -0.1666   -1.0026 C   0  0  0  0  0  0  0  0  0  0  0  0
   -0.1624    0.4592   -0.8312 C   0  0  0  0  0  0  0  0  0  0  0  0
   -0.8836    0.1103    0.3105 C   0  0  0  0  0  0  0  0  0  0  0  0
   -0.4834   -0.7983    1.2389 N   0  0  0  0  0  0  0  0  0  0  0  0
    0.6985   -1.4013    1.0340 C   0  0  0  0  0  0  0  0  0  0  0  0
    1.0822   -2.3408    1.9912 N   0  0  0  0  0  0  0  0  0  0  0  0
   -0.6555    1.4210   -1.8026 C   0  0  0  0  0  0  0  0  0  0  0  0
    0.0131    2.1143   -2.8389 C   0  0  0  0  0  0  0  0  0  0  0  0
   -0.7965    2.9104   -3.5409 N   0  0  0  0  0  0  0  0  0  0  0  0
   -1.9989    2.7323   -2.9634 N   0  0  0  0  0  0  0  0  0  0  0  0
   -1.9616    1.8547   -1.9139 C   0  0  0  0  0  0  0  0  0  0  0  0
   -3.1539    3.4572   -3.4854 C   0  0  0  0  0  0  0  0  0  0  0  0
   -4.3164    2.5300   -3.8828 C   0  0  0  0  0  0  0  0  0  0  0  0
   -5.4456    2.5736   -2.8606 C   0  0  0  0  0  0  0  0  0  0  0  0
   -5.9799    3.9172   -2.6493 N   0  0  0  0  0  0  0  0  0  0  0  0
   -5.0156    5.0014   -2.8314 C   0  0  0  0  0  0  0  0  0  0  0  0
   -3.5869    4.5744   -2.5276 C   0  0  0  0  0  0  0  0  0  0  0  0
    4.6057   -0.3297   -1.4863 H   0  0  0  0  0  0  0  0  0  0  0  0
    5.2757   -1.8726   -0.9920 H   0  0  0  0  0  0  0  0  0  0  0  0
    5.8059   -0.3870   -0.1771 H   0  0  0  0  0  0  0  0  0  0  0  0
    3.4804   -0.0180    0.6367 H   0  0  0  0  0  0  0  0  0  0  0  0
    5.2655   -1.0707    4.8757 H   0  0  0  0  0  0  0  0  0  0  0  0
    5.4347   -3.5442    4.9581 H   0  0  0  0  0  0  0  0  0  0  0  0
    1.7002    0.0384   -1.8663 H   0  0  0  0  0  0  0  0  0  0  0  0
   -1.8448    0.5636    0.5371 H   0  0  0  0  0  0  0  0  0  0  0  0
    0.2934   -2.4648    2.6199 H   0  0  0  0  0  0  0  0  0  0  0  0
    1.3596   -3.2057    1.5367 H   0  0  0  0  0  0  0  0  0  0  0  0
    1.0591    2.0769   -3.1135 H   0  0  0  0  0  0  0  0  0  0  0  0
   -2.8558    1.6175   -1.3555 H   0  0  0  0  0  0  0  0  0  0  0  0
   -2.8020    3.9274   -4.4152 H   0  0  0  0  0  0  0  0  0  0  0  0
   -4.7161    2.8616   -4.8510 H   0  0  0  0  0  0  0  0  0  0  0  0
   -3.9795    1.4980   -4.0339 H   0  0  0  0  0  0  0  0  0  0  0  0
   -5.0984    2.1819   -1.8984 H   0  0  0  0  0  0  0  0  0  0  0  0
   -6.2599    1.9131   -3.1805 H   0  0  0  0  0  0  0  0  0  0  0  0
   -6.7861    4.0782   -3.2547 H   0  0  0  0  0  0  0  0  0  0  0  0
   -5.3008    5.8355   -2.1817 H   0  0  0  0  0  0  0  0  0  0  0  0
   -5.0746    5.3688   -3.8630 H   0  0  0  0  0  0  0  0  0  0  0  0
   -2.9093    5.4309   -2.6287 H   0  0  0  0  0  0  0  0  0  0  0  0
   -3.5163    4.2530   -1.4804 H   0  0  0  0  0  0  0  0  0  0  0  0
  1  2  1  0
  2  3  1  0
  3  4  2  0
  4  5  1  0
  5  6  2  0
  6  7  1  0
  7  8  2  0
  8  9  1  0
  7 10  1  0
  4 11  1  0
  2 12  1  0
 12 13  1  0
 13 14  2  0
 14 15  1  0
 15 16  2  0
 16 17  1  0
 17 18  2  0
 18 19  1  0
 15 20  1  0
 20 21  1  0
 21 22  2  0
 22 23  1  0
 23 24  1  0
 23 25  1  0
 25 26  1  0
 26 27  1  0
 27 28  1  0
 28 29  1  0
 29 30  1  0
  8  3  1  0
 18 13  1  0
 24 20  2  0
 30 25  1  0
  1 31  1  0
  1 32  1  0
  1 33  1  0
  2 34  1  1
  5 35  1  0
  6 36  1  0
 14 37  1  0
 16 38  1  0
 19 39  1  0
 19 40  1  0
 21 41  1  0
 24 42  1  0
 25 43  1  0
 26 44  1  0
 26 45  1  0
 27 46  1  0
 27 47  1  0
 28 48  1  0
 29 49  1  0
 29 50  1  0
 30 51  1  0
 30 52  1  0
M  END
>  <energy_abs>  (20) 
28.854260478623214

>  <SMILES>  (20) 
C[C@H](c1c(ccc(c1Cl)F)Cl)Oc2cc(cnc2N)c3cnn(c3)C4CCNCC4

>  <cluster_no>  (20) 
20

>  <fda_drugs_id>  (20) 
KTEIFNKAUNYNJU-GFCCVEGCSA-N

>  <initial_conformation_id>  (20) 
297

>  <minimize_method>  (20) 
MMFF

$$$$

     RDKit          3D

 52 55  0  0  0  0  0  0  0  0999 V2000
    4.3744   -0.9425   -1.2776 C   0  0  0  0  0  0  0  0  0  0  0  0
    3.4094   -1.0531   -0.0948 C   0  0  2  0  0  0  0  0  0  0  0  0
    4.1404   -1.3533    1.2106 C   0  0  0  0  0  0  0  0  0  0  0  0
    4.2930   -0.3459    2.1930 C   0  0  0  0  0  0  0  0  0  0  0  0
    4.9594   -0.5936    3.4020 C   0  0  0  0  0  0  0  0  0  0  0  0
    5.4999   -1.8465    3.6615 C   0  0  0  0  0  0  0  0  0  0  0  0
    5.3746   -2.8461    2.7086 C   0  0  0  0  0  0  0  0  0  0  0  0
    4.7085   -2.6169    1.4957 C   0  0  0  0  0  0  0  0  0  0  0  0
    4.6199   -3.9562    0.3997 Cl  0  0  0  0  0  0  0  0  0  0  0  0
    5.9109   -4.0465    2.9771 F   0  0  0  0  0  0  0  0  0  0  0  0
    3.6933    1.2658    1.9826 Cl  0  0  0  0  0  0  0  0  0  0  0  0
    2.4346   -2.0706   -0.3955 O   0  0  0  0  0  0  0  0  0  0  0  0
    1.1598   -1.7578    0.0054 C   0  0  0  0  0  0  0  0  0  0  0  0
    0.4776   -0.6584   -0.5201 C   0  0  0  0  0  0  0  0  0  0  0  0
   -0.8305   -0.3964   -0.1088 C   0  0  0  0  0  0  0  0  0  0  0  0
   -1.3882   -1.2812    0.8104 C   0  0  0  0  0  0  0  0  0  0  0  0
   -0.7596   -2.3747    1.3091 N   0  0  0  0  0  0  0  0  0  0  0  0
    0.4937   -2.6156    0.8903 C   0  0  0  0  0  0  0  0  0  0  0  0
    1.1220   -3.7753    1.3722 N   0  0  0  0  0  0  0  0  0  0  0  0
   -1.5849    0.7382   -0.6081 C   0  0  0  0  0  0  0  0  0  0  0  0
   -2.6669    1.4509   -0.0397 C   0  0  0  0  0  0  0  0  0  0  0  0
   -3.1125    2.4314   -0.8282 N   0  0  0  0  0  0  0  0  0  0  0  0
   -2.3205    2.3531   -1.9136 N   0  0  0  0  0  0  0  0  0  0  0  0
   -1.3884    1.3552   -1.8270 C   0  0  0  0  0  0  0  0  0  0  0  0
   -2.5144    3.2624   -3.0362 C   0  0  0  0  0  0  0  0  0  0  0  0
   -3.8581    3.0224   -3.7331 C   0  0  0  0  0  0  0  0  0  0  0  0
   -4.0466    4.0086   -4.8806 C   0  0  0  0  0  0  0  0  0  0  0  0
   -3.9218    5.3957   -4.4337 N   0  0  0  0  0  0  0  0  0  0  0  0
   -2.6218    5.6486   -3.8121 C   0  0  0  0  0  0  0  0  0  0  0  0
   -2.3724    4.7308   -2.6203 C   0  0  0  0  0  0  0  0  0  0  0  0
    3.8254   -0.6618   -2.1834 H   0  0  0  0  0  0  0  0  0  0  0  0
    5.1453   -0.1871   -1.0930 H   0  0  0  0  0  0  0  0  0  0  0  0
    4.8714   -1.8896   -1.5045 H   0  0  0  0  0  0  0  0  0  0  0  0
    2.9131   -0.0816   -0.0368 H   0  0  0  0  0  0  0  0  0  0  0  0
    5.0625    0.1945    4.1461 H   0  0  0  0  0  0  0  0  0  0  0  0
    6.0196   -2.0499    4.5933 H   0  0  0  0  0  0  0  0  0  0  0  0
    0.9657   -0.0194   -1.2485 H   0  0  0  0  0  0  0  0  0  0  0  0
   -2.4026   -1.1558    1.1800 H   0  0  0  0  0  0  0  0  0  0  0  0
    1.9794   -3.5094    1.8434 H   0  0  0  0  0  0  0  0  0  0  0  0
    1.4074   -4.3286    0.5669 H   0  0  0  0  0  0  0  0  0  0  0  0
   -3.1488    1.3002    0.9180 H   0  0  0  0  0  0  0  0  0  0  0  0
   -0.6953    1.1661   -2.6346 H   0  0  0  0  0  0  0  0  0  0  0  0
   -1.7125    3.0333   -3.7520 H   0  0  0  0  0  0  0  0  0  0  0  0
   -3.9074    1.9958   -4.1165 H   0  0  0  0  0  0  0  0  0  0  0  0
   -4.6861    3.1293   -3.0199 H   0  0  0  0  0  0  0  0  0  0  0  0
   -5.0387    3.8674   -5.3236 H   0  0  0  0  0  0  0  0  0  0  0  0
   -3.3190    3.8099   -5.6770 H   0  0  0  0  0  0  0  0  0  0  0  0
   -4.6602    5.5956   -3.7559 H   0  0  0  0  0  0  0  0  0  0  0  0
   -1.8261    5.5301   -4.5574 H   0  0  0  0  0  0  0  0  0  0  0  0
   -2.5853    6.6925   -3.4820 H   0  0  0  0  0  0  0  0  0  0  0  0
   -1.3695    4.9138   -2.2155 H   0  0  0  0  0  0  0  0  0  0  0  0
   -3.0823    4.9757   -1.8193 H   0  0  0  0  0  0  0  0  0  0  0  0
  1  2  1  0
  2  3  1  0
  3  4  2  0
  4  5  1  0
  5  6  2  0
  6  7  1  0
  7  8  2  0
  8  9  1  0
  7 10  1  0
  4 11  1  0
  2 12  1  0
 12 13  1  0
 13 14  2  0
 14 15  1  0
 15 16  2  0
 16 17  1  0
 17 18  2  0
 18 19  1  0
 15 20  1  0
 20 21  1  0
 21 22  2  0
 22 23  1  0
 23 24  1  0
 23 25  1  0
 25 26  1  0
 26 27  1  0
 27 28  1  0
 28 29  1  0
 29 30  1  0
  8  3  1  0
 18 13  1  0
 24 20  2  0
 30 25  1  0
  1 31  1  0
  1 32  1  0
  1 33  1  0
  2 34  1  1
  5 35  1  0
  6 36  1  0
 14 37  1  0
 16 38  1  0
 19 39  1  0
 19 40  1  0
 21 41  1  0
 24 42  1  0
 25 43  1  0
 26 44  1  0
 26 45  1  0
 27 46  1  0
 27 47  1  0
 28 48  1  0
 29 49  1  0
 29 50  1  0
 30 51  1  0
 30 52  1  0
M  END
>  <energy_abs>  (21) 
34.11953576439554

>  <SMILES>  (21) 
C[C@H](c1c(ccc(c1Cl)F)Cl)Oc2cc(cnc2N)c3cnn(c3)C4CCNCC4

>  <cluster_no>  (21) 
21

>  <fda_drugs_id>  (21) 
KTEIFNKAUNYNJU-GFCCVEGCSA-N

>  <initial_conformation_id>  (21) 
296

>  <minimize_method>  (21) 
MMFF

$$$$

     RDKit          3D

 52 55  0  0  0  0  0  0  0  0999 V2000
    4.0697   -0.5650   -1.3399 C   0  0  0  0  0  0  0  0  0  0  0  0
    3.2233   -0.8377   -0.0936 C   0  0  2  0  0  0  0  0  0  0  0  0
    4.0915   -1.2687    1.0836 C   0  0  0  0  0  0  0  0  0  0  0  0
    4.3746   -0.3609    2.1312 C   0  0  0  0  0  0  0  0  0  0  0  0
    5.1516   -0.7349    3.2374 C   0  0  0  0  0  0  0  0  0  0  0  0
    5.6736   -2.0192    3.3250 C   0  0  0  0  0  0  0  0  0  0  0  0
    5.4242   -2.9210    2.3010 C   0  0  0  0  0  0  0  0  0  0  0  0
    4.6511   -2.5633    1.1870 C   0  0  0  0  0  0  0  0  0  0  0  0
    4.4385   -3.7824   -0.0282 Cl  0  0  0  0  0  0  0  0  0  0  0  0
    5.9498   -4.1519    2.4014 F   0  0  0  0  0  0  0  0  0  0  0  0
    3.8152    1.2792    2.1243 Cl  0  0  0  0  0  0  0  0  0  0  0  0
    2.2308   -1.8276   -0.4330 O   0  0  0  0  0  0  0  0  0  0  0  0
    1.0157   -1.5420    0.1350 C   0  0  0  0  0  0  0  0  0  0  0  0
    0.1452   -0.6710   -0.5202 C   0  0  0  0  0  0  0  0  0  0  0  0
   -1.1068   -0.4035    0.0361 C   0  0  0  0  0  0  0  0  0  0  0  0
   -1.4142   -1.0566    1.2292 C   0  0  0  0  0  0  0  0  0  0  0  0
   -0.5951   -1.9292    1.8717 N   0  0  0  0  0  0  0  0  0  0  0  0
    0.6001   -2.1737    1.3093 C   0  0  0  0  0  0  0  0  0  0  0  0
    1.4288   -3.0626    1.9936 N   0  0  0  0  0  0  0  0  0  0  0  0
   -2.0555    0.5004   -0.5892 C   0  0  0  0  0  0  0  0  0  0  0  0
   -3.4576    0.6173   -0.4393 C   0  0  0  0  0  0  0  0  0  0  0  0
   -3.9797    1.5940   -1.1839 N   0  0  0  0  0  0  0  0  0  0  0  0
   -2.9170    2.1105   -1.8270 N   0  0  0  0  0  0  0  0  0  0  0  0
   -1.7408    1.4904   -1.4979 C   0  0  0  0  0  0  0  0  0  0  0  0
   -3.1037    3.2264   -2.7477 C   0  0  0  0  0  0  0  0  0  0  0  0
   -2.7737    2.8389   -4.2004 C   0  0  0  0  0  0  0  0  0  0  0  0
   -2.1389    3.9902   -4.9791 C   0  0  0  0  0  0  0  0  0  0  0  0
   -2.7886    5.2483   -4.6454 N   0  0  0  0  0  0  0  0  0  0  0  0
   -2.6006    5.6397   -3.2484 C   0  0  0  0  0  0  0  0  0  0  0  0
   -2.3266    4.4686   -2.3039 C   0  0  0  0  0  0  0  0  0  0  0  0
    4.8372    0.1903   -1.1428 H   0  0  0  0  0  0  0  0  0  0  0  0
    4.5643   -1.4671   -1.7125 H   0  0  0  0  0  0  0  0  0  0  0  0
    3.4313   -0.2064   -2.1554 H   0  0  0  0  0  0  0  0  0  0  0  0
    2.7116    0.1057    0.1268 H   0  0  0  0  0  0  0  0  0  0  0  0
    5.3518   -0.0229    4.0360 H   0  0  0  0  0  0  0  0  0  0  0  0
    6.2748   -2.3215    4.1773 H   0  0  0  0  0  0  0  0  0  0  0  0
    0.4522   -0.2259   -1.4608 H   0  0  0  0  0  0  0  0  0  0  0  0
   -2.3617   -0.8958    1.7372 H   0  0  0  0  0  0  0  0  0  0  0  0
    0.8798   -3.4697    2.7457 H   0  0  0  0  0  0  0  0  0  0  0  0
    1.8021   -3.7593    1.3554 H   0  0  0  0  0  0  0  0  0  0  0  0
   -4.1254    0.0297    0.1777 H   0  0  0  0  0  0  0  0  0  0  0  0
   -0.8035    1.8098   -1.9297 H   0  0  0  0  0  0  0  0  0  0  0  0
   -4.1745    3.4746   -2.7030 H   0  0  0  0  0  0  0  0  0  0  0  0
   -3.7037    2.5276   -4.6947 H   0  0  0  0  0  0  0  0  0  0  0  0
   -2.1030    1.9729   -4.2527 H   0  0  0  0  0  0  0  0  0  0  0  0
   -2.2463    3.7962   -6.0524 H   0  0  0  0  0  0  0  0  0  0  0  0
   -1.0615    4.0491   -4.7788 H   0  0  0  0  0  0  0  0  0  0  0  0
   -2.4684    5.9961   -5.2611 H   0  0  0  0  0  0  0  0  0  0  0  0
   -1.7730    6.3547   -3.1721 H   0  0  0  0  0  0  0  0  0  0  0  0
   -3.5037    6.1688   -2.9243 H   0  0  0  0  0  0  0  0  0  0  0  0
   -1.2493    4.2558   -2.2934 H   0  0  0  0  0  0  0  0  0  0  0  0
   -2.5963    4.7504   -1.2784 H   0  0  0  0  0  0  0  0  0  0  0  0
  1  2  1  0
  2  3  1  0
  3  4  2  0
  4  5  1  0
  5  6  2  0
  6  7  1  0
  7  8  2  0
  8  9  1  0
  7 10  1  0
  4 11  1  0
  2 12  1  0
 12 13  1  0
 13 14  2  0
 14 15  1  0
 15 16  2  0
 16 17  1  0
 17 18  2  0
 18 19  1  0
 15 20  1  0
 20 21  1  0
 21 22  2  0
 22 23  1  0
 23 24  1  0
 23 25  1  0
 25 26  1  0
 26 27  1  0
 27 28  1  0
 28 29  1  0
 29 30  1  0
  8  3  1  0
 18 13  1  0
 24 20  2  0
 30 25  1  0
  1 31  1  0
  1 32  1  0
  1 33  1  0
  2 34  1  1
  5 35  1  0
  6 36  1  0
 14 37  1  0
 16 38  1  0
 19 39  1  0
 19 40  1  0
 21 41  1  0
 24 42  1  0
 25 43  1  0
 26 44  1  0
 26 45  1  0
 27 46  1  0
 27 47  1  0
 28 48  1  0
 29 49  1  0
 29 50  1  0
 30 51  1  0
 30 52  1  0
M  END
>  <energy_abs>  (22) 
28.508620092728012

>  <SMILES>  (22) 
C[C@H](c1c(ccc(c1Cl)F)Cl)Oc2cc(cnc2N)c3cnn(c3)C4CCNCC4

>  <cluster_no>  (22) 
22

>  <fda_drugs_id>  (22) 
KTEIFNKAUNYNJU-GFCCVEGCSA-N

>  <initial_conformation_id>  (22) 
295

>  <minimize_method>  (22) 
MMFF

$$$$

     RDKit          3D

 52 55  0  0  0  0  0  0  0  0999 V2000
    2.0899   -3.6226   -0.1494 C   0  0  0  0  0  0  0  0  0  0  0  0
    2.5321   -2.3546    0.5846 C   0  0  2  0  0  0  0  0  0  0  0  0
    3.7257   -2.6414    1.4896 C   0  0  0  0  0  0  0  0  0  0  0  0
    3.5975   -3.2630    2.7529 C   0  0  0  0  0  0  0  0  0  0  0  0
    4.7164   -3.5035    3.5658 C   0  0  0  0  0  0  0  0  0  0  0  0
    5.9882   -3.1432    3.1393 C   0  0  0  0  0  0  0  0  0  0  0  0
    6.1393   -2.5536    1.8941 C   0  0  0  0  0  0  0  0  0  0  0  0
    5.0342   -2.3075    1.0687 C   0  0  0  0  0  0  0  0  0  0  0  0
    5.3598   -1.6163   -0.4868 Cl  0  0  0  0  0  0  0  0  0  0  0  0
    7.3786   -2.2352    1.4911 F   0  0  0  0  0  0  0  0  0  0  0  0
    2.0852   -3.8062    3.3994 Cl  0  0  0  0  0  0  0  0  0  0  0  0
    1.4064   -1.8534    1.3366 O   0  0  0  0  0  0  0  0  0  0  0  0
    1.0403   -0.5962    0.9366 C   0  0  0  0  0  0  0  0  0  0  0  0
   -0.0924   -0.4655    0.1386 C   0  0  0  0  0  0  0  0  0  0  0  0
   -0.4998    0.8040   -0.2732 C   0  0  0  0  0  0  0  0  0  0  0  0
    0.2654    1.8833    0.1672 C   0  0  0  0  0  0  0  0  0  0  0  0
    1.3576    1.7828    0.9678 N   0  0  0  0  0  0  0  0  0  0  0  0
    1.7212    0.5487    1.3549 C   0  0  0  0  0  0  0  0  0  0  0  0
    2.8422    0.4680    2.1796 N   0  0  0  0  0  0  0  0  0  0  0  0
   -1.6707    0.9709   -1.1136 C   0  0  0  0  0  0  0  0  0  0  0  0
   -2.8024    0.1424   -1.2908 C   0  0  0  0  0  0  0  0  0  0  0  0
   -3.6681    0.6306   -2.1805 N   0  0  0  0  0  0  0  0  0  0  0  0
   -3.0922    1.7774   -2.5946 N   0  0  0  0  0  0  0  0  0  0  0  0
   -1.9024    2.0304   -1.9659 C   0  0  0  0  0  0  0  0  0  0  0  0
   -3.7775    2.5841   -3.6036 C   0  0  0  0  0  0  0  0  0  0  0  0
   -2.8493    3.0819   -4.7283 C   0  0  0  0  0  0  0  0  0  0  0  0
   -2.7839    4.6063   -4.8000 C   0  0  0  0  0  0  0  0  0  0  0  0
   -2.5764    5.1560   -3.4683 N   0  0  0  0  0  0  0  0  0  0  0  0
   -3.7006    4.9071   -2.5619 C   0  0  0  0  0  0  0  0  0  0  0  0
   -4.5792    3.7208   -2.9611 C   0  0  0  0  0  0  0  0  0  0  0  0
    1.2156   -3.4172   -0.7764 H   0  0  0  0  0  0  0  0  0  0  0  0
    1.7915   -4.4146    0.5444 H   0  0  0  0  0  0  0  0  0  0  0  0
    2.8901   -4.0112   -0.7871 H   0  0  0  0  0  0  0  0  0  0  0  0
    2.8010   -1.6247   -0.1849 H   0  0  0  0  0  0  0  0  0  0  0  0
    4.5978   -3.9819    4.5365 H   0  0  0  0  0  0  0  0  0  0  0  0
    6.8593   -3.3278    3.7595 H   0  0  0  0  0  0  0  0  0  0  0  0
   -0.6286   -1.3582   -0.1656 H   0  0  0  0  0  0  0  0  0  0  0  0
    0.0122    2.9053   -0.1029 H   0  0  0  0  0  0  0  0  0  0  0  0
    2.6338   -0.0941    2.9984 H   0  0  0  0  0  0  0  0  0  0  0  0
    3.1098    1.4198    2.4128 H   0  0  0  0  0  0  0  0  0  0  0  0
   -3.0344   -0.7966   -0.8052 H   0  0  0  0  0  0  0  0  0  0  0  0
   -1.3293    2.9192   -2.1943 H   0  0  0  0  0  0  0  0  0  0  0  0
   -4.4976    1.8941   -4.0661 H   0  0  0  0  0  0  0  0  0  0  0  0
   -1.8349    2.6767   -4.6192 H   0  0  0  0  0  0  0  0  0  0  0  0
   -3.2152    2.7056   -5.6937 H   0  0  0  0  0  0  0  0  0  0  0  0
   -1.9485    4.8952   -5.4475 H   0  0  0  0  0  0  0  0  0  0  0  0
   -3.6937    5.0191   -5.2587 H   0  0  0  0  0  0  0  0  0  0  0  0
   -2.3731    6.1558   -3.5116 H   0  0  0  0  0  0  0  0  0  0  0  0
   -3.2967    4.7502   -1.5530 H   0  0  0  0  0  0  0  0  0  0  0  0
   -4.3328    5.8040   -2.5081 H   0  0  0  0  0  0  0  0  0  0  0  0
   -5.1393    3.3668   -2.0873 H   0  0  0  0  0  0  0  0  0  0  0  0
   -5.3266    4.0678   -3.6869 H   0  0  0  0  0  0  0  0  0  0  0  0
  1  2  1  0
  2  3  1  0
  3  4  2  0
  4  5  1  0
  5  6  2  0
  6  7  1  0
  7  8  2  0
  8  9  1  0
  7 10  1  0
  4 11  1  0
  2 12  1  0
 12 13  1  0
 13 14  2  0
 14 15  1  0
 15 16  2  0
 16 17  1  0
 17 18  2  0
 18 19  1  0
 15 20  1  0
 20 21  1  0
 21 22  2  0
 22 23  1  0
 23 24  1  0
 23 25  1  0
 25 26  1  0
 26 27  1  0
 27 28  1  0
 28 29  1  0
 29 30  1  0
  8  3  1  0
 18 13  1  0
 24 20  2  0
 30 25  1  0
  1 31  1  0
  1 32  1  0
  1 33  1  0
  2 34  1  6
  5 35  1  0
  6 36  1  0
 14 37  1  0
 16 38  1  0
 19 39  1  0
 19 40  1  0
 21 41  1  0
 24 42  1  0
 25 43  1  0
 26 44  1  0
 26 45  1  0
 27 46  1  0
 27 47  1  0
 28 48  1  0
 29 49  1  0
 29 50  1  0
 30 51  1  0
 30 52  1  0
M  END
>  <energy_abs>  (23) 
27.820178958303632

>  <SMILES>  (23) 
C[C@H](c1c(ccc(c1Cl)F)Cl)Oc2cc(cnc2N)c3cnn(c3)C4CCNCC4

>  <cluster_no>  (23) 
23

>  <fda_drugs_id>  (23) 
KTEIFNKAUNYNJU-GFCCVEGCSA-N

>  <initial_conformation_id>  (23) 
294

>  <minimize_method>  (23) 
MMFF

$$$$

     RDKit          3D

 52 55  0  0  0  0  0  0  0  0999 V2000
    1.8790   -2.8592    2.7525 C   0  0  0  0  0  0  0  0  0  0  0  0
    2.2464   -1.9797    1.5532 C   0  0  2  0  0  0  0  0  0  0  0  0
    3.5150   -2.4792    0.8662 C   0  0  0  0  0  0  0  0  0  0  0  0
    3.4421   -3.1485   -0.3780 C   0  0  0  0  0  0  0  0  0  0  0  0
    4.5936   -3.6189   -1.0268 C   0  0  0  0  0  0  0  0  0  0  0  0
    5.8454   -3.4391   -0.4529 C   0  0  0  0  0  0  0  0  0  0  0  0
    5.9413   -2.7933    0.7706 C   0  0  0  0  0  0  0  0  0  0  0  0
    4.8015   -2.3168    1.4343 C   0  0  0  0  0  0  0  0  0  0  0  0
    5.0681   -1.5438    2.9636 Cl  0  0  0  0  0  0  0  0  0  0  0  0
    7.1610   -2.6393    1.3088 F   0  0  0  0  0  0  0  0  0  0  0  0
    1.9437   -3.4514   -1.1938 Cl  0  0  0  0  0  0  0  0  0  0  0  0
    2.4443   -0.6068    1.9355 O   0  0  0  0  0  0  0  0  0  0  0  0
    1.2761    0.1019    2.0328 C   0  0  0  0  0  0  0  0  0  0  0  0
    0.5877    0.4988    0.8862 C   0  0  0  0  0  0  0  0  0  0  0  0
   -0.5725    1.2661    1.0097 C   0  0  0  0  0  0  0  0  0  0  0  0
   -0.9595    1.6052    2.3066 C   0  0  0  0  0  0  0  0  0  0  0  0
   -0.2934    1.2531    3.4369 N   0  0  0  0  0  0  0  0  0  0  0  0
    0.8227    0.5221    3.2850 C   0  0  0  0  0  0  0  0  0  0  0  0
    1.4760    0.1367    4.4557 N   0  0  0  0  0  0  0  0  0  0  0  0
   -1.3499    1.6956   -0.1420 C   0  0  0  0  0  0  0  0  0  0  0  0
   -2.6493    2.2531   -0.2250 C   0  0  0  0  0  0  0  0  0  0  0  0
   -3.0200    2.5276   -1.4774 N   0  0  0  0  0  0  0  0  0  0  0  0
   -1.9614    2.1421   -2.2141 N   0  0  0  0  0  0  0  0  0  0  0  0
   -0.9362    1.6413   -1.4588 C   0  0  0  0  0  0  0  0  0  0  0  0
   -1.9798    2.2889   -3.6676 C   0  0  0  0  0  0  0  0  0  0  0  0
   -3.0138    1.3473   -4.3018 C   0  0  0  0  0  0  0  0  0  0  0  0
   -3.3684    1.8093   -5.7086 C   0  0  0  0  0  0  0  0  0  0  0  0
   -3.8959    3.1716   -5.7692 N   0  0  0  0  0  0  0  0  0  0  0  0
   -3.5881    3.9955   -4.5980 C   0  0  0  0  0  0  0  0  0  0  0  0
   -2.1710    3.7527   -4.0947 C   0  0  0  0  0  0  0  0  0  0  0  0
    2.5865   -2.7552    3.5797 H   0  0  0  0  0  0  0  0  0  0  0  0
    1.8308   -3.9163    2.4700 H   0  0  0  0  0  0  0  0  0  0  0  0
    0.8987   -2.5736    3.1496 H   0  0  0  0  0  0  0  0  0  0  0  0
    1.4077   -2.0268    0.8536 H   0  0  0  0  0  0  0  0  0  0  0  0
    4.5158   -4.1310   -1.9841 H   0  0  0  0  0  0  0  0  0  0  0  0
    6.7439   -3.8000   -0.9443 H   0  0  0  0  0  0  0  0  0  0  0  0
    0.9684    0.2047   -0.0859 H   0  0  0  0  0  0  0  0  0  0  0  0
   -1.8465    2.2031    2.4983 H   0  0  0  0  0  0  0  0  0  0  0  0
    1.0478    0.6337    5.2303 H   0  0  0  0  0  0  0  0  0  0  0  0
    2.4762    0.2912    4.3785 H   0  0  0  0  0  0  0  0  0  0  0  0
   -3.3472    2.4695    0.5739 H   0  0  0  0  0  0  0  0  0  0  0  0
   -0.0199    1.3044   -1.9224 H   0  0  0  0  0  0  0  0  0  0  0  0
   -0.9803    1.9815   -4.0054 H   0  0  0  0  0  0  0  0  0  0  0  0
   -2.6153    0.3258   -4.3296 H   0  0  0  0  0  0  0  0  0  0  0  0
   -3.9312    1.2983   -3.7010 H   0  0  0  0  0  0  0  0  0  0  0  0
   -4.0983    1.1216   -6.1505 H   0  0  0  0  0  0  0  0  0  0  0  0
   -2.4752    1.7582   -6.3428 H   0  0  0  0  0  0  0  0  0  0  0  0
   -4.9083    3.1504   -5.8974 H   0  0  0  0  0  0  0  0  0  0  0  0
   -4.3152    3.7985   -3.8015 H   0  0  0  0  0  0  0  0  0  0  0  0
   -3.7020    5.0485   -4.8765 H   0  0  0  0  0  0  0  0  0  0  0  0
   -1.4663    3.9827   -4.9058 H   0  0  0  0  0  0  0  0  0  0  0  0
   -1.9349    4.4489   -3.2810 H   0  0  0  0  0  0  0  0  0  0  0  0
  1  2  1  0
  2  3  1  0
  3  4  2  0
  4  5  1  0
  5  6  2  0
  6  7  1  0
  7  8  2  0
  8  9  1  0
  7 10  1  0
  4 11  1  0
  2 12  1  0
 12 13  1  0
 13 14  2  0
 14 15  1  0
 15 16  2  0
 16 17  1  0
 17 18  2  0
 18 19  1  0
 15 20  1  0
 20 21  1  0
 21 22  2  0
 22 23  1  0
 23 24  1  0
 23 25  1  0
 25 26  1  0
 26 27  1  0
 27 28  1  0
 28 29  1  0
 29 30  1  0
  8  3  1  0
 18 13  1  0
 24 20  2  0
 30 25  1  0
  1 31  1  0
  1 32  1  0
  1 33  1  0
  2 34  1  6
  5 35  1  0
  6 36  1  0
 14 37  1  0
 16 38  1  0
 19 39  1  0
 19 40  1  0
 21 41  1  0
 24 42  1  0
 25 43  1  0
 26 44  1  0
 26 45  1  0
 27 46  1  0
 27 47  1  0
 28 48  1  0
 29 49  1  0
 29 50  1  0
 30 51  1  0
 30 52  1  0
M  END
>  <energy_abs>  (24) 
28.494577171765002

>  <SMILES>  (24) 
C[C@H](c1c(ccc(c1Cl)F)Cl)Oc2cc(cnc2N)c3cnn(c3)C4CCNCC4

>  <cluster_no>  (24) 
24

>  <fda_drugs_id>  (24) 
KTEIFNKAUNYNJU-GFCCVEGCSA-N

>  <initial_conformation_id>  (24) 
293

>  <minimize_method>  (24) 
MMFF

$$$$

     RDKit          3D

 52 55  0  0  0  0  0  0  0  0999 V2000
    1.1177   -2.9836    0.5056 C   0  0  0  0  0  0  0  0  0  0  0  0
    2.1077   -1.8346    0.7113 C   0  0  2  0  0  0  0  0  0  0  0  0
    3.5430   -2.3606    0.7311 C   0  0  0  0  0  0  0  0  0  0  0  0
    4.1054   -3.0105    1.8558 C   0  0  0  0  0  0  0  0  0  0  0  0
    5.4345   -3.4619    1.8487 C   0  0  0  0  0  0  0  0  0  0  0  0
    6.2308   -3.2953    0.7225 C   0  0  0  0  0  0  0  0  0  0  0  0
    5.6913   -2.6877   -0.4002 C   0  0  0  0  0  0  0  0  0  0  0  0
    4.3674   -2.2290   -0.4115 C   0  0  0  0  0  0  0  0  0  0  0  0
    3.7973   -1.5241   -1.8917 Cl  0  0  0  0  0  0  0  0  0  0  0  0
    6.4698   -2.5551   -1.4847 F   0  0  0  0  0  0  0  0  0  0  0  0
    3.2227   -3.3348    3.3112 Cl  0  0  0  0  0  0  0  0  0  0  0  0
    1.8503   -1.1446    1.9368 O   0  0  0  0  0  0  0  0  0  0  0  0
    0.8924   -0.1714    2.0121 C   0  0  0  0  0  0  0  0  0  0  0  0
    0.0469    0.2344    0.9794 C   0  0  0  0  0  0  0  0  0  0  0  0
   -0.9094    1.2291    1.2121 C   0  0  0  0  0  0  0  0  0  0  0  0
   -0.9729    1.7685    2.4930 C   0  0  0  0  0  0  0  0  0  0  0  0
   -0.1695    1.4022    3.5182 N   0  0  0  0  0  0  0  0  0  0  0  0
    0.7444    0.4472    3.2657 C   0  0  0  0  0  0  0  0  0  0  0  0
    1.6020    0.1392    4.3236 N   0  0  0  0  0  0  0  0  0  0  0  0
   -1.8096    1.6828    0.1709 C   0  0  0  0  0  0  0  0  0  0  0  0
   -3.1452    2.1400    0.2394 C   0  0  0  0  0  0  0  0  0  0  0  0
   -3.6273    2.5030   -0.9510 N   0  0  0  0  0  0  0  0  0  0  0  0
   -2.5986    2.2898   -1.7926 N   0  0  0  0  0  0  0  0  0  0  0  0
   -1.4881    1.7923   -1.1660 C   0  0  0  0  0  0  0  0  0  0  0  0
   -2.7523    2.6074   -3.2072 C   0  0  0  0  0  0  0  0  0  0  0  0
   -1.8678    3.7913   -3.6348 C   0  0  0  0  0  0  0  0  0  0  0  0
   -1.1918    3.5485   -4.9817 C   0  0  0  0  0  0  0  0  0  0  0  0
   -2.1312    3.0238   -5.9643 N   0  0  0  0  0  0  0  0  0  0  0  0
   -2.7321    1.7474   -5.5668 C   0  0  0  0  0  0  0  0  0  0  0  0
   -2.5426    1.3788   -4.0962 C   0  0  0  0  0  0  0  0  0  0  0  0
    1.3447   -3.5490   -0.4048 H   0  0  0  0  0  0  0  0  0  0  0  0
    0.0918   -2.6101    0.4272 H   0  0  0  0  0  0  0  0  0  0  0  0
    1.1182   -3.6816    1.3495 H   0  0  0  0  0  0  0  0  0  0  0  0
    2.0097   -1.1182   -0.1058 H   0  0  0  0  0  0  0  0  0  0  0  0
    5.8534   -3.9504    2.7269 H   0  0  0  0  0  0  0  0  0  0  0  0
    7.2597   -3.6389    0.7090 H   0  0  0  0  0  0  0  0  0  0  0  0
    0.0997   -0.2167   -0.0041 H   0  0  0  0  0  0  0  0  0  0  0  0
   -1.6841    2.5503    2.7467 H   0  0  0  0  0  0  0  0  0  0  0  0
    1.2566    0.6036    5.1571 H   0  0  0  0  0  0  0  0  0  0  0  0
    1.7125   -0.8637    4.4210 H   0  0  0  0  0  0  0  0  0  0  0  0
   -3.7897    2.2207    1.1057 H   0  0  0  0  0  0  0  0  0  0  0  0
   -0.5781    1.5881   -1.7126 H   0  0  0  0  0  0  0  0  0  0  0  0
   -3.7997    2.9216   -3.3279 H   0  0  0  0  0  0  0  0  0  0  0  0
   -2.4965    4.6886   -3.6990 H   0  0  0  0  0  0  0  0  0  0  0  0
   -1.0973    4.0201   -2.8896 H   0  0  0  0  0  0  0  0  0  0  0  0
   -0.7711    4.4891   -5.3534 H   0  0  0  0  0  0  0  0  0  0  0  0
   -0.3456    2.8604   -4.8694 H   0  0  0  0  0  0  0  0  0  0  0  0
   -2.8688    3.7095   -6.1360 H   0  0  0  0  0  0  0  0  0  0  0  0
   -3.8039    1.7812   -5.7960 H   0  0  0  0  0  0  0  0  0  0  0  0
   -2.3109    0.9513   -6.1917 H   0  0  0  0  0  0  0  0  0  0  0  0
   -3.2472    0.5828   -3.8223 H   0  0  0  0  0  0  0  0  0  0  0  0
   -1.5370    0.9632   -3.9494 H   0  0  0  0  0  0  0  0  0  0  0  0
  1  2  1  0
  2  3  1  0
  3  4  2  0
  4  5  1  0
  5  6  2  0
  6  7  1  0
  7  8  2  0
  8  9  1  0
  7 10  1  0
  4 11  1  0
  2 12  1  0
 12 13  1  0
 13 14  2  0
 14 15  1  0
 15 16  2  0
 16 17  1  0
 17 18  2  0
 18 19  1  0
 15 20  1  0
 20 21  1  0
 21 22  2  0
 22 23  1  0
 23 24  1  0
 23 25  1  0
 25 26  1  0
 26 27  1  0
 27 28  1  0
 28 29  1  0
 29 30  1  0
  8  3  1  0
 18 13  1  0
 24 20  2  0
 30 25  1  0
  1 31  1  0
  1 32  1  0
  1 33  1  0
  2 34  1  6
  5 35  1  0
  6 36  1  0
 14 37  1  0
 16 38  1  0
 19 39  1  0
 19 40  1  0
 21 41  1  0
 24 42  1  0
 25 43  1  0
 26 44  1  0
 26 45  1  0
 27 46  1  0
 27 47  1  0
 28 48  1  0
 29 49  1  0
 29 50  1  0
 30 51  1  0
 30 52  1  0
M  END
>  <energy_abs>  (25) 
32.776567352492336

>  <SMILES>  (25) 
C[C@H](c1c(ccc(c1Cl)F)Cl)Oc2cc(cnc2N)c3cnn(c3)C4CCNCC4

>  <cluster_no>  (25) 
25

>  <fda_drugs_id>  (25) 
KTEIFNKAUNYNJU-GFCCVEGCSA-N

>  <initial_conformation_id>  (25) 
292

>  <minimize_method>  (25) 
MMFF

$$$$

     RDKit          3D

 52 55  0  0  0  0  0  0  0  0999 V2000
    1.4202   -2.8880    1.5268 C   0  0  0  0  0  0  0  0  0  0  0  0
    2.5610   -2.0331    0.9663 C   0  0  2  0  0  0  0  0  0  0  0  0
    3.9054   -2.7186    1.2134 C   0  0  0  0  0  0  0  0  0  0  0  0
    4.5447   -3.4309    0.1707 C   0  0  0  0  0  0  0  0  0  0  0  0
    5.7786   -4.0677    0.3653 C   0  0  0  0  0  0  0  0  0  0  0  0
    6.4028   -4.0226    1.6052 C   0  0  0  0  0  0  0  0  0  0  0  0
    5.7847   -3.3509    2.6489 C   0  0  0  0  0  0  0  0  0  0  0  0
    4.5500   -2.7100    2.4734 C   0  0  0  0  0  0  0  0  0  0  0  0
    3.8702   -1.9515    3.8765 Cl  0  0  0  0  0  0  0  0  0  0  0  0
    6.3985   -3.3375    3.8420 F   0  0  0  0  0  0  0  0  0  0  0  0
    3.8507   -3.5984   -1.4083 Cl  0  0  0  0  0  0  0  0  0  0  0  0
    2.5919   -0.7252    1.5510 O   0  0  0  0  0  0  0  0  0  0  0  0
    1.6092    0.1834    1.2587 C   0  0  0  0  0  0  0  0  0  0  0  0
    0.7590    0.1398    0.1521 C   0  0  0  0  0  0  0  0  0  0  0  0
   -0.2050    1.1386   -0.0320 C   0  0  0  0  0  0  0  0  0  0  0  0
   -0.2532    2.1488    0.9242 C   0  0  0  0  0  0  0  0  0  0  0  0
    0.5658    2.2314    1.9990 N   0  0  0  0  0  0  0  0  0  0  0  0
    1.4824    1.2611    2.1535 C   0  0  0  0  0  0  0  0  0  0  0  0
    2.3319    1.3520    3.2731 N   0  0  0  0  0  0  0  0  0  0  0  0
   -1.1100    1.1039   -1.1690 C   0  0  0  0  0  0  0  0  0  0  0  0
   -1.4638    0.0449   -2.0375 C   0  0  0  0  0  0  0  0  0  0  0  0
   -2.3343    0.4124   -2.9800 N   0  0  0  0  0  0  0  0  0  0  0  0
   -2.5484    1.7161   -2.7265 N   0  0  0  0  0  0  0  0  0  0  0  0
   -1.8391    2.1738   -1.6491 C   0  0  0  0  0  0  0  0  0  0  0  0
   -3.4713    2.4664   -3.5695 C   0  0  0  0  0  0  0  0  0  0  0  0
   -2.7917    3.6590   -4.2515 C   0  0  0  0  0  0  0  0  0  0  0  0
   -3.7994    4.4319   -5.0958 C   0  0  0  0  0  0  0  0  0  0  0  0
   -4.9517    4.8617   -4.3039 N   0  0  0  0  0  0  0  0  0  0  0  0
   -5.6410    3.7241   -3.6954 C   0  0  0  0  0  0  0  0  0  0  0  0
   -4.7131    2.9175   -2.7929 C   0  0  0  0  0  0  0  0  0  0  0  0
    0.4450   -2.4589    1.2772 H   0  0  0  0  0  0  0  0  0  0  0  0
    1.4546   -2.9520    2.6190 H   0  0  0  0  0  0  0  0  0  0  0  0
    1.4507   -3.9060    1.1240 H   0  0  0  0  0  0  0  0  0  0  0  0
    2.4281   -1.9081   -0.1093 H   0  0  0  0  0  0  0  0  0  0  0  0
    6.2551   -4.6072   -0.4510 H   0  0  0  0  0  0  0  0  0  0  0  0
    7.3580   -4.5125    1.7688 H   0  0  0  0  0  0  0  0  0  0  0  0
    0.8426   -0.6507   -0.5836 H   0  0  0  0  0  0  0  0  0  0  0  0
   -0.9781    2.9560    0.8698 H   0  0  0  0  0  0  0  0  0  0  0  0
    2.2341    0.4901    3.8060 H   0  0  0  0  0  0  0  0  0  0  0  0
    3.2899    1.3485    2.9319 H   0  0  0  0  0  0  0  0  0  0  0  0
   -1.1280   -0.9835   -2.0232 H   0  0  0  0  0  0  0  0  0  0  0  0
   -1.9147    3.2046   -1.3311 H   0  0  0  0  0  0  0  0  0  0  0  0
   -3.7976    1.7704   -4.3556 H   0  0  0  0  0  0  0  0  0  0  0  0
   -1.9665    3.3122   -4.8849 H   0  0  0  0  0  0  0  0  0  0  0  0
   -2.3522    4.3322   -3.5047 H   0  0  0  0  0  0  0  0  0  0  0  0
   -3.3149    5.3152   -5.5266 H   0  0  0  0  0  0  0  0  0  0  0  0
   -4.1384    3.8195   -5.9408 H   0  0  0  0  0  0  0  0  0  0  0  0
   -4.6468    5.5091   -3.5769 H   0  0  0  0  0  0  0  0  0  0  0  0
   -6.4888    4.0959   -3.1093 H   0  0  0  0  0  0  0  0  0  0  0  0
   -6.0616    3.0833   -4.4800 H   0  0  0  0  0  0  0  0  0  0  0  0
   -5.2488    2.0462   -2.3970 H   0  0  0  0  0  0  0  0  0  0  0  0
   -4.4253    3.5273   -1.9272 H   0  0  0  0  0  0  0  0  0  0  0  0
  1  2  1  0
  2  3  1  0
  3  4  2  0
  4  5  1  0
  5  6  2  0
  6  7  1  0
  7  8  2  0
  8  9  1  0
  7 10  1  0
  4 11  1  0
  2 12  1  0
 12 13  1  0
 13 14  2  0
 14 15  1  0
 15 16  2  0
 16 17  1  0
 17 18  2  0
 18 19  1  0
 15 20  1  0
 20 21  1  0
 21 22  2  0
 22 23  1  0
 23 24  1  0
 23 25  1  0
 25 26  1  0
 26 27  1  0
 27 28  1  0
 28 29  1  0
 29 30  1  0
  8  3  1  0
 18 13  1  0
 24 20  2  0
 30 25  1  0
  1 31  1  0
  1 32  1  0
  1 33  1  0
  2 34  1  6
  5 35  1  0
  6 36  1  0
 14 37  1  0
 16 38  1  0
 19 39  1  0
 19 40  1  0
 21 41  1  0
 24 42  1  0
 25 43  1  0
 26 44  1  0
 26 45  1  0
 27 46  1  0
 27 47  1  0
 28 48  1  0
 29 49  1  0
 29 50  1  0
 30 51  1  0
 30 52  1  0
M  END
>  <energy_abs>  (26) 
34.8951533689377

>  <SMILES>  (26) 
C[C@H](c1c(ccc(c1Cl)F)Cl)Oc2cc(cnc2N)c3cnn(c3)C4CCNCC4

>  <cluster_no>  (26) 
26

>  <fda_drugs_id>  (26) 
KTEIFNKAUNYNJU-GFCCVEGCSA-N

>  <initial_conformation_id>  (26) 
290

>  <minimize_method>  (26) 
MMFF

$$$$

     RDKit          3D

 52 55  0  0  0  0  0  0  0  0999 V2000
    3.8932   -0.2996   -0.2913 C   0  0  0  0  0  0  0  0  0  0  0  0
    3.6193   -0.8651    1.1109 C   0  0  2  0  0  0  0  0  0  0  0  0
    4.0562   -2.3208    1.2621 C   0  0  0  0  0  0  0  0  0  0  0  0
    4.9917   -2.6997    2.2526 C   0  0  0  0  0  0  0  0  0  0  0  0
    5.4055   -4.0336    2.4054 C   0  0  0  0  0  0  0  0  0  0  0  0
    4.8872   -5.0257    1.5822 C   0  0  0  0  0  0  0  0  0  0  0  0
    3.9373   -4.6852    0.6290 C   0  0  0  0  0  0  0  0  0  0  0  0
    3.5110   -3.3582    0.4688 C   0  0  0  0  0  0  0  0  0  0  0  0
    2.2649   -3.0862   -0.7031 Cl  0  0  0  0  0  0  0  0  0  0  0  0
    3.4276   -5.6651   -0.1370 F   0  0  0  0  0  0  0  0  0  0  0  0
    5.6822   -1.5694    3.3657 Cl  0  0  0  0  0  0  0  0  0  0  0  0
    2.2394   -0.8264    1.5141 O   0  0  0  0  0  0  0  0  0  0  0  0
    1.6862    0.4225    1.5286 C   0  0  0  0  0  0  0  0  0  0  0  0
    0.8030    0.7351    0.4953 C   0  0  0  0  0  0  0  0  0  0  0  0
    0.1562    1.9691    0.4888 C   0  0  0  0  0  0  0  0  0  0  0  0
    0.4472    2.8309    1.5430 C   0  0  0  0  0  0  0  0  0  0  0  0
    1.2788    2.5373    2.5742 N   0  0  0  0  0  0  0  0  0  0  0  0
    1.8593    1.3259    2.5827 C   0  0  0  0  0  0  0  0  0  0  0  0
    2.6443    1.0179    3.6961 N   0  0  0  0  0  0  0  0  0  0  0  0
   -0.7865    2.3387   -0.5524 C   0  0  0  0  0  0  0  0  0  0  0  0
   -1.1818    3.6067   -1.0372 C   0  0  0  0  0  0  0  0  0  0  0  0
   -2.1116    3.5275   -1.9977 N   0  0  0  0  0  0  0  0  0  0  0  0
   -2.3116    2.2033   -2.1404 N   0  0  0  0  0  0  0  0  0  0  0  0
   -1.5443    1.4503   -1.2930 C   0  0  0  0  0  0  0  0  0  0  0  0
   -3.2634    1.7074   -3.1274 C   0  0  0  0  0  0  0  0  0  0  0  0
   -4.6867    2.1946   -2.8332 C   0  0  0  0  0  0  0  0  0  0  0  0
   -5.6736    1.6551   -3.8718 C   0  0  0  0  0  0  0  0  0  0  0  0
   -5.1153    1.5297   -5.2206 N   0  0  0  0  0  0  0  0  0  0  0  0
   -4.0068    2.4518   -5.4462 C   0  0  0  0  0  0  0  0  0  0  0  0
   -2.8241    2.0640   -4.5595 C   0  0  0  0  0  0  0  0  0  0  0  0
    3.9297    0.7957   -0.2456 H   0  0  0  0  0  0  0  0  0  0  0  0
    3.1083   -0.5375   -1.0111 H   0  0  0  0  0  0  0  0  0  0  0  0
    4.8538   -0.6423   -0.6884 H   0  0  0  0  0  0  0  0  0  0  0  0
    4.1944   -0.2357    1.7915 H   0  0  0  0  0  0  0  0  0  0  0  0
    6.1305   -4.3077    3.1738 H   0  0  0  0  0  0  0  0  0  0  0  0
    5.1976   -6.0596    1.6870 H   0  0  0  0  0  0  0  0  0  0  0  0
    0.6311    0.0071   -0.2926 H   0  0  0  0  0  0  0  0  0  0  0  0
   -0.0080    3.8147    1.6171 H   0  0  0  0  0  0  0  0  0  0  0  0
    3.6229    0.9533    3.4461 H   0  0  0  0  0  0  0  0  0  0  0  0
    2.3557    0.1165    4.0588 H   0  0  0  0  0  0  0  0  0  0  0  0
   -0.8298    4.5875   -0.7401 H   0  0  0  0  0  0  0  0  0  0  0  0
   -1.6125    0.3714   -1.2852 H   0  0  0  0  0  0  0  0  0  0  0  0
   -3.2534    0.6119   -3.0295 H   0  0  0  0  0  0  0  0  0  0  0  0
   -5.0004    1.8963   -1.8222 H   0  0  0  0  0  0  0  0  0  0  0  0
   -4.7154    3.2927   -2.8502 H   0  0  0  0  0  0  0  0  0  0  0  0
   -6.0335    0.6671   -3.5558 H   0  0  0  0  0  0  0  0  0  0  0  0
   -6.5509    2.3149   -3.8972 H   0  0  0  0  0  0  0  0  0  0  0  0
   -5.8511    1.6941   -5.9083 H   0  0  0  0  0  0  0  0  0  0  0  0
   -3.6944    2.4122   -6.5022 H   0  0  0  0  0  0  0  0  0  0  0  0
   -4.3176    3.4865   -5.2523 H   0  0  0  0  0  0  0  0  0  0  0  0
   -2.0999    2.8819   -4.5666 H   0  0  0  0  0  0  0  0  0  0  0  0
   -2.3030    1.2015   -4.9903 H   0  0  0  0  0  0  0  0  0  0  0  0
  1  2  1  0
  2  3  1  0
  3  4  2  0
  4  5  1  0
  5  6  2  0
  6  7  1  0
  7  8  2  0
  8  9  1  0
  7 10  1  0
  4 11  1  0
  2 12  1  0
 12 13  1  0
 13 14  2  0
 14 15  1  0
 15 16  2  0
 16 17  1  0
 17 18  2  0
 18 19  1  0
 15 20  1  0
 20 21  1  0
 21 22  2  0
 22 23  1  0
 23 24  1  0
 23 25  1  0
 25 26  1  0
 26 27  1  0
 27 28  1  0
 28 29  1  0
 29 30  1  0
  8  3  1  0
 18 13  1  0
 24 20  2  0
 30 25  1  0
  1 31  1  0
  1 32  1  0
  1 33  1  0
  2 34  1  1
  5 35  1  0
  6 36  1  0
 14 37  1  0
 16 38  1  0
 19 39  1  0
 19 40  1  0
 21 41  1  0
 24 42  1  0
 25 43  1  0
 26 44  1  0
 26 45  1  0
 27 46  1  0
 27 47  1  0
 28 48  1  0
 29 49  1  0
 29 50  1  0
 30 51  1  0
 30 52  1  0
M  END
>  <energy_abs>  (27) 
41.651419918578

>  <SMILES>  (27) 
C[C@H](c1c(ccc(c1Cl)F)Cl)Oc2cc(cnc2N)c3cnn(c3)C4CCNCC4

>  <cluster_no>  (27) 
27

>  <fda_drugs_id>  (27) 
KTEIFNKAUNYNJU-GFCCVEGCSA-N

>  <initial_conformation_id>  (27) 
289

>  <minimize_method>  (27) 
MMFF

$$$$

     RDKit          3D

 52 55  0  0  0  0  0  0  0  0999 V2000
    4.7453   -0.1045   -1.0962 C   0  0  0  0  0  0  0  0  0  0  0  0
    4.4508   -0.4793    0.3586 C   0  0  2  0  0  0  0  0  0  0  0  0
    3.6001   -1.7001    0.7264 C   0  0  0  0  0  0  0  0  0  0  0  0
    3.7884   -2.2933    2.0058 C   0  0  0  0  0  0  0  0  0  0  0  0
    3.0256   -3.3859    2.4423 C   0  0  0  0  0  0  0  0  0  0  0  0
    2.0540   -3.9304    1.6175 C   0  0  0  0  0  0  0  0  0  0  0  0
    1.8581   -3.3830    0.3596 C   0  0  0  0  0  0  0  0  0  0  0  0
    2.6130   -2.2873   -0.0956 C   0  0  0  0  0  0  0  0  0  0  0  0
    2.2365   -1.7495   -1.6953 Cl  0  0  0  0  0  0  0  0  0  0  0  0
    0.9180   -3.9343   -0.4242 F   0  0  0  0  0  0  0  0  0  0  0  0
    4.9869   -1.7303    3.1286 Cl  0  0  0  0  0  0  0  0  0  0  0  0
    4.1720    0.7256    1.1147 O   0  0  0  0  0  0  0  0  0  0  0  0
    2.8698    1.0263    1.4133 C   0  0  0  0  0  0  0  0  0  0  0  0
    1.8716    1.1552    0.4496 C   0  0  0  0  0  0  0  0  0  0  0  0
    0.5680    1.4845    0.8344 C   0  0  0  0  0  0  0  0  0  0  0  0
    0.3499    1.6917    2.1935 C   0  0  0  0  0  0  0  0  0  0  0  0
    1.3070    1.6143    3.1485 N   0  0  0  0  0  0  0  0  0  0  0  0
    2.5517    1.3021    2.7525 C   0  0  0  0  0  0  0  0  0  0  0  0
    3.5506    1.2737    3.7417 N   0  0  0  0  0  0  0  0  0  0  0  0
   -0.5152    1.6221   -0.1246 C   0  0  0  0  0  0  0  0  0  0  0  0
   -1.7758    2.2572   -0.0110 C   0  0  0  0  0  0  0  0  0  0  0  0
   -2.5141    2.1517   -1.1182 N   0  0  0  0  0  0  0  0  0  0  0  0
   -1.7313    1.4460   -1.9557 N   0  0  0  0  0  0  0  0  0  0  0  0
   -0.5245    1.1094   -1.4061 C   0  0  0  0  0  0  0  0  0  0  0  0
   -2.2003    1.1026   -3.2962 C   0  0  0  0  0  0  0  0  0  0  0  0
   -3.2951    0.0281   -3.2300 C   0  0  0  0  0  0  0  0  0  0  0  0
   -4.1203    0.0221   -4.5092 C   0  0  0  0  0  0  0  0  0  0  0  0
   -4.7688    1.3001   -4.7986 N   0  0  0  0  0  0  0  0  0  0  0  0
   -4.1527    2.4560   -4.1418 C   0  0  0  0  0  0  0  0  0  0  0  0
   -2.6343    2.3415   -4.0956 C   0  0  0  0  0  0  0  0  0  0  0  0
    3.9094    0.3931   -1.5904 H   0  0  0  0  0  0  0  0  0  0  0  0
    5.0514   -0.9754   -1.6840 H   0  0  0  0  0  0  0  0  0  0  0  0
    5.5649    0.6242   -1.1275 H   0  0  0  0  0  0  0  0  0  0  0  0
    5.4587   -0.7592    0.6959 H   0  0  0  0  0  0  0  0  0  0  0  0
    3.1878   -3.8139    3.4299 H   0  0  0  0  0  0  0  0  0  0  0  0
    1.4526   -4.7742    1.9411 H   0  0  0  0  0  0  0  0  0  0  0  0
    2.1093    1.0369   -0.5988 H   0  0  0  0  0  0  0  0  0  0  0  0
   -0.6332    1.9399    2.5846 H   0  0  0  0  0  0  0  0  0  0  0  0
    3.9965    0.3598    3.7171 H   0  0  0  0  0  0  0  0  0  0  0  0
    4.2689    1.9401    3.4703 H   0  0  0  0  0  0  0  0  0  0  0  0
   -2.1895    2.7961    0.8319 H   0  0  0  0  0  0  0  0  0  0  0  0
    0.1974    0.5347   -1.9676 H   0  0  0  0  0  0  0  0  0  0  0  0
   -1.3274    0.6771   -3.8103 H   0  0  0  0  0  0  0  0  0  0  0  0
   -3.9623    0.1898   -2.3730 H   0  0  0  0  0  0  0  0  0  0  0  0
   -2.8362   -0.9561   -3.0742 H   0  0  0  0  0  0  0  0  0  0  0  0
   -4.8824   -0.7634   -4.4548 H   0  0  0  0  0  0  0  0  0  0  0  0
   -3.4739   -0.2360   -5.3566 H   0  0  0  0  0  0  0  0  0  0  0  0
   -5.7535    1.2612   -4.5326 H   0  0  0  0  0  0  0  0  0  0  0  0
   -4.5567    2.5654   -3.1283 H   0  0  0  0  0  0  0  0  0  0  0  0
   -4.4361    3.3589   -4.6934 H   0  0  0  0  0  0  0  0  0  0  0  0
   -2.2571    2.2530   -5.1236 H   0  0  0  0  0  0  0  0  0  0  0  0
   -2.1968    3.2615   -3.6897 H   0  0  0  0  0  0  0  0  0  0  0  0
  1  2  1  0
  2  3  1  0
  3  4  2  0
  4  5  1  0
  5  6  2  0
  6  7  1  0
  7  8  2  0
  8  9  1  0
  7 10  1  0
  4 11  1  0
  2 12  1  0
 12 13  1  0
 13 14  2  0
 14 15  1  0
 15 16  2  0
 16 17  1  0
 17 18  2  0
 18 19  1  0
 15 20  1  0
 20 21  1  0
 21 22  2  0
 22 23  1  0
 23 24  1  0
 23 25  1  0
 25 26  1  0
 26 27  1  0
 27 28  1  0
 28 29  1  0
 29 30  1  0
  8  3  1  0
 18 13  1  0
 24 20  2  0
 30 25  1  0
  1 31  1  0
  1 32  1  0
  1 33  1  0
  2 34  1  1
  5 35  1  0
  6 36  1  0
 14 37  1  0
 16 38  1  0
 19 39  1  0
 19 40  1  0
 21 41  1  0
 24 42  1  0
 25 43  1  0
 26 44  1  0
 26 45  1  0
 27 46  1  0
 27 47  1  0
 28 48  1  0
 29 49  1  0
 29 50  1  0
 30 51  1  0
 30 52  1  0
M  END
>  <energy_abs>  (28) 
44.853044694481326

>  <SMILES>  (28) 
C[C@H](c1c(ccc(c1Cl)F)Cl)Oc2cc(cnc2N)c3cnn(c3)C4CCNCC4

>  <cluster_no>  (28) 
28

>  <fda_drugs_id>  (28) 
KTEIFNKAUNYNJU-GFCCVEGCSA-N

>  <initial_conformation_id>  (28) 
288

>  <minimize_method>  (28) 
MMFF

$$$$

     RDKit          3D

 52 55  0  0  0  0  0  0  0  0999 V2000
    5.1715   -1.0775    2.7198 C   0  0  0  0  0  0  0  0  0  0  0  0
    3.8431   -0.7830    2.0184 C   0  0  2  0  0  0  0  0  0  0  0  0
    3.2938   -2.0301    1.3320 C   0  0  0  0  0  0  0  0  0  0  0  0
    2.2169   -2.7450    1.9083 C   0  0  0  0  0  0  0  0  0  0  0  0
    1.6889   -3.8932    1.3009 C   0  0  0  0  0  0  0  0  0  0  0  0
    2.2259   -4.3656    0.1099 C   0  0  0  0  0  0  0  0  0  0  0  0
    3.2910   -3.6896   -0.4663 C   0  0  0  0  0  0  0  0  0  0  0  0
    3.8285   -2.5367    0.1248 C   0  0  0  0  0  0  0  0  0  0  0  0
    5.1594   -1.7936   -0.6982 Cl  0  0  0  0  0  0  0  0  0  0  0  0
    3.7977   -4.1698   -1.6120 F   0  0  0  0  0  0  0  0  0  0  0  0
    1.4801   -2.2767    3.4038 Cl  0  0  0  0  0  0  0  0  0  0  0  0
    4.0538    0.3092    1.0990 O   0  0  0  0  0  0  0  0  0  0  0  0
    2.9677    1.1474    1.0539 C   0  0  0  0  0  0  0  0  0  0  0  0
    1.9067    0.8586    0.1978 C   0  0  0  0  0  0  0  0  0  0  0  0
    0.8070    1.7149    0.1592 C   0  0  0  0  0  0  0  0  0  0  0  0
    0.8560    2.8396    0.9798 C   0  0  0  0  0  0  0  0  0  0  0  0
    1.8924    3.1568    1.7973 N   0  0  0  0  0  0  0  0  0  0  0  0
    2.9443    2.3228    1.8150 C   0  0  0  0  0  0  0  0  0  0  0  0
    4.0293    2.6660    2.6386 N   0  0  0  0  0  0  0  0  0  0  0  0
   -0.3224    1.4370   -0.7058 C   0  0  0  0  0  0  0  0  0  0  0  0
   -0.3972    0.7360   -1.9304 C   0  0  0  0  0  0  0  0  0  0  0  0
   -1.6378    0.6734   -2.4152 N   0  0  0  0  0  0  0  0  0  0  0  0
   -2.3735    1.3422   -1.5113 N   0  0  0  0  0  0  0  0  0  0  0  0
   -1.6270    1.8117   -0.4616 C   0  0  0  0  0  0  0  0  0  0  0  0
   -3.8159    1.5126   -1.6740 C   0  0  0  0  0  0  0  0  0  0  0  0
   -4.1529    2.8404   -2.3631 C   0  0  0  0  0  0  0  0  0  0  0  0
   -4.0295    2.7479   -3.8807 C   0  0  0  0  0  0  0  0  0  0  0  0
   -4.8615    1.6698   -4.4135 N   0  0  0  0  0  0  0  0  0  0  0  0
   -4.4289    0.3772   -3.8810 C   0  0  0  0  0  0  0  0  0  0  0  0
   -4.5223    0.3299   -2.3563 C   0  0  0  0  0  0  0  0  0  0  0  0
    5.9616   -1.3529    2.0149 H   0  0  0  0  0  0  0  0  0  0  0  0
    5.0660   -1.8870    3.4490 H   0  0  0  0  0  0  0  0  0  0  0  0
    5.5270   -0.1830    3.2432 H   0  0  0  0  0  0  0  0  0  0  0  0
    3.1648   -0.4364    2.8055 H   0  0  0  0  0  0  0  0  0  0  0  0
    0.8564   -4.4261    1.7568 H   0  0  0  0  0  0  0  0  0  0  0  0
    1.8284   -5.2567   -0.3676 H   0  0  0  0  0  0  0  0  0  0  0  0
    1.9456   -0.0285   -0.4253 H   0  0  0  0  0  0  0  0  0  0  0  0
    0.0461    3.5638    1.0008 H   0  0  0  0  0  0  0  0  0  0  0  0
    4.1688    1.9349    3.3264 H   0  0  0  0  0  0  0  0  0  0  0  0
    4.8641    2.6881    2.0567 H   0  0  0  0  0  0  0  0  0  0  0  0
    0.4019    0.2702   -2.4923 H   0  0  0  0  0  0  0  0  0  0  0  0
   -2.0885    2.3547    0.3512 H   0  0  0  0  0  0  0  0  0  0  0  0
   -4.1968    1.5615   -0.6444 H   0  0  0  0  0  0  0  0  0  0  0  0
   -3.5151    3.6511   -1.9910 H   0  0  0  0  0  0  0  0  0  0  0  0
   -5.1862    3.1142   -2.1093 H   0  0  0  0  0  0  0  0  0  0  0  0
   -4.3573    3.6937   -4.3267 H   0  0  0  0  0  0  0  0  0  0  0  0
   -2.9849    2.6098   -4.1841 H   0  0  0  0  0  0  0  0  0  0  0  0
   -5.8389    1.8324   -4.1736 H   0  0  0  0  0  0  0  0  0  0  0  0
   -3.4163    0.1506   -4.2304 H   0  0  0  0  0  0  0  0  0  0  0  0
   -5.0719   -0.4037   -4.3017 H   0  0  0  0  0  0  0  0  0  0  0  0
   -4.1308   -0.6260   -1.9890 H   0  0  0  0  0  0  0  0  0  0  0  0
   -5.5848    0.3582   -2.0770 H   0  0  0  0  0  0  0  0  0  0  0  0
  1  2  1  0
  2  3  1  0
  3  4  2  0
  4  5  1  0
  5  6  2  0
  6  7  1  0
  7  8  2  0
  8  9  1  0
  7 10  1  0
  4 11  1  0
  2 12  1  0
 12 13  1  0
 13 14  2  0
 14 15  1  0
 15 16  2  0
 16 17  1  0
 17 18  2  0
 18 19  1  0
 15 20  1  0
 20 21  1  0
 21 22  2  0
 22 23  1  0
 23 24  1  0
 23 25  1  0
 25 26  1  0
 26 27  1  0
 27 28  1  0
 28 29  1  0
 29 30  1  0
  8  3  1  0
 18 13  1  0
 24 20  2  0
 30 25  1  0
  1 31  1  0
  1 32  1  0
  1 33  1  0
  2 34  1  1
  5 35  1  0
  6 36  1  0
 14 37  1  0
 16 38  1  0
 19 39  1  0
 19 40  1  0
 21 41  1  0
 24 42  1  0
 25 43  1  0
 26 44  1  0
 26 45  1  0
 27 46  1  0
 27 47  1  0
 28 48  1  0
 29 49  1  0
 29 50  1  0
 30 51  1  0
 30 52  1  0
M  END
>  <energy_abs>  (29) 
35.2005162870332

>  <SMILES>  (29) 
C[C@H](c1c(ccc(c1Cl)F)Cl)Oc2cc(cnc2N)c3cnn(c3)C4CCNCC4

>  <cluster_no>  (29) 
29

>  <fda_drugs_id>  (29) 
KTEIFNKAUNYNJU-GFCCVEGCSA-N

>  <initial_conformation_id>  (29) 
287

>  <minimize_method>  (29) 
MMFF

$$$$

     RDKit          3D

 52 55  0  0  0  0  0  0  0  0999 V2000
    2.6175   -2.7638   -0.6704 C   0  0  0  0  0  0  0  0  0  0  0  0
    3.1963   -1.8729    0.4360 C   0  0  2  0  0  0  0  0  0  0  0  0
    4.1319   -2.6420    1.3650 C   0  0  0  0  0  0  0  0  0  0  0  0
    3.6639   -3.6350    2.2604 C   0  0  0  0  0  0  0  0  0  0  0  0
    4.5453   -4.3384    3.0986 C   0  0  0  0  0  0  0  0  0  0  0  0
    5.9086   -4.0691    3.0741 C   0  0  0  0  0  0  0  0  0  0  0  0
    6.3892   -3.0972    2.2091 C   0  0  0  0  0  0  0  0  0  0  0  0
    5.5254   -2.3892    1.3600 C   0  0  0  0  0  0  0  0  0  0  0  0
    6.2486   -1.2024    0.3239 Cl  0  0  0  0  0  0  0  0  0  0  0  0
    7.7089   -2.8491    2.2081 F   0  0  0  0  0  0  0  0  0  0  0  0
    1.9924   -4.0707    2.4113 Cl  0  0  0  0  0  0  0  0  0  0  0  0
    2.1417   -1.2930    1.2325 O   0  0  0  0  0  0  0  0  0  0  0  0
    1.7483   -0.0641    0.7693 C   0  0  0  0  0  0  0  0  0  0  0  0
    0.5811    0.0078    0.0068 C   0  0  0  0  0  0  0  0  0  0  0  0
    0.1298    1.2487   -0.4429 C   0  0  0  0  0  0  0  0  0  0  0  0
    0.8957    2.3596   -0.0825 C   0  0  0  0  0  0  0  0  0  0  0  0
    2.0171    2.3148    0.6816 N   0  0  0  0  0  0  0  0  0  0  0  0
    2.4188    1.1133    1.1263 C   0  0  0  0  0  0  0  0  0  0  0  0
    3.5490    1.0796    1.9548 N   0  0  0  0  0  0  0  0  0  0  0  0
   -1.0790    1.3620   -1.2382 C   0  0  0  0  0  0  0  0  0  0  0  0
   -1.7662    0.4016   -2.0174 C   0  0  0  0  0  0  0  0  0  0  0  0
   -2.8709    0.8872   -2.5866 N   0  0  0  0  0  0  0  0  0  0  0  0
   -2.9032    2.1703   -2.1796 N   0  0  0  0  0  0  0  0  0  0  0  0
   -1.8498    2.4997   -1.3678 C   0  0  0  0  0  0  0  0  0  0  0  0
   -3.9939    3.0504   -2.5874 C   0  0  0  0  0  0  0  0  0  0  0  0
   -4.0786    3.1863   -4.1133 C   0  0  0  0  0  0  0  0  0  0  0  0
   -5.2603    4.0683   -4.5075 C   0  0  0  0  0  0  0  0  0  0  0  0
   -6.5191    3.5741   -3.9466 N   0  0  0  0  0  0  0  0  0  0  0  0
   -6.4662    3.5022   -2.4851 C   0  0  0  0  0  0  0  0  0  0  0  0
   -5.3377    2.5934   -2.0038 C   0  0  0  0  0  0  0  0  0  0  0  0
    2.1011   -2.1502   -1.4218 H   0  0  0  0  0  0  0  0  0  0  0  0
    3.4065   -3.3252   -1.1827 H   0  0  0  0  0  0  0  0  0  0  0  0
    1.8697   -3.4721   -0.2966 H   0  0  0  0  0  0  0  0  0  0  0  0
    3.7425   -1.0719   -0.0736 H   0  0  0  0  0  0  0  0  0  0  0  0
    4.1646   -5.0994    3.7774 H   0  0  0  0  0  0  0  0  0  0  0  0
    6.5946   -4.6050    3.7225 H   0  0  0  0  0  0  0  0  0  0  0  0
    0.0308   -0.9063   -0.2100 H   0  0  0  0  0  0  0  0  0  0  0  0
    0.6338    3.3645   -0.4062 H   0  0  0  0  0  0  0  0  0  0  0  0
    4.2988    0.5842    1.4878 H   0  0  0  0  0  0  0  0  0  0  0  0
    3.3114    0.5527    2.7937 H   0  0  0  0  0  0  0  0  0  0  0  0
   -1.5101   -0.6339   -2.1954 H   0  0  0  0  0  0  0  0  0  0  0  0
   -1.7576    3.4928   -0.9509 H   0  0  0  0  0  0  0  0  0  0  0  0
   -3.7595    4.0402   -2.1677 H   0  0  0  0  0  0  0  0  0  0  0  0
   -4.1905    2.2004   -4.5821 H   0  0  0  0  0  0  0  0  0  0  0  0
   -3.1490    3.6143   -4.5066 H   0  0  0  0  0  0  0  0  0  0  0  0
   -5.0922    5.1021   -4.1809 H   0  0  0  0  0  0  0  0  0  0  0  0
   -5.3453    4.0971   -5.6005 H   0  0  0  0  0  0  0  0  0  0  0  0
   -6.7063    2.6422   -4.3181 H   0  0  0  0  0  0  0  0  0  0  0  0
   -7.4243    3.1212   -2.1142 H   0  0  0  0  0  0  0  0  0  0  0  0
   -6.3508    4.5084   -2.0676 H   0  0  0  0  0  0  0  0  0  0  0  0
   -5.5522    1.5584   -2.3012 H   0  0  0  0  0  0  0  0  0  0  0  0
   -5.2980    2.6017   -0.9069 H   0  0  0  0  0  0  0  0  0  0  0  0
  1  2  1  0
  2  3  1  0
  3  4  2  0
  4  5  1  0
  5  6  2  0
  6  7  1  0
  7  8  2  0
  8  9  1  0
  7 10  1  0
  4 11  1  0
  2 12  1  0
 12 13  1  0
 13 14  2  0
 14 15  1  0
 15 16  2  0
 16 17  1  0
 17 18  2  0
 18 19  1  0
 15 20  1  0
 20 21  1  0
 21 22  2  0
 22 23  1  0
 23 24  1  0
 23 25  1  0
 25 26  1  0
 26 27  1  0
 27 28  1  0
 28 29  1  0
 29 30  1  0
  8  3  1  0
 18 13  1  0
 24 20  2  0
 30 25  1  0
  1 31  1  0
  1 32  1  0
  1 33  1  0
  2 34  1  6
  5 35  1  0
  6 36  1  0
 14 37  1  0
 16 38  1  0
 19 39  1  0
 19 40  1  0
 21 41  1  0
 24 42  1  0
 25 43  1  0
 26 44  1  0
 26 45  1  0
 27 46  1  0
 27 47  1  0
 28 48  1  0
 29 49  1  0
 29 50  1  0
 30 51  1  0
 30 52  1  0
M  END
>  <energy_abs>  (30) 
35.536435539833406

>  <SMILES>  (30) 
C[C@H](c1c(ccc(c1Cl)F)Cl)Oc2cc(cnc2N)c3cnn(c3)C4CCNCC4

>  <cluster_no>  (30) 
30

>  <fda_drugs_id>  (30) 
KTEIFNKAUNYNJU-GFCCVEGCSA-N

>  <initial_conformation_id>  (30) 
286

>  <minimize_method>  (30) 
MMFF

$$$$

     RDKit          3D

 52 55  0  0  0  0  0  0  0  0999 V2000
    2.6299   -0.9111    3.0011 C   0  0  0  0  0  0  0  0  0  0  0  0
    2.7871   -1.4588    1.5712 C   0  0  2  0  0  0  0  0  0  0  0  0
    3.7892   -2.6099    1.5197 C   0  0  0  0  0  0  0  0  0  0  0  0
    3.3495   -3.9404    1.2978 C   0  0  0  0  0  0  0  0  0  0  0  0
    4.2524   -5.0117    1.2668 C   0  0  0  0  0  0  0  0  0  0  0  0
    5.6139   -4.7918    1.4618 C   0  0  0  0  0  0  0  0  0  0  0  0
    6.0685   -3.4976    1.6791 C   0  0  0  0  0  0  0  0  0  0  0  0
    5.1818   -2.4122    1.7057 C   0  0  0  0  0  0  0  0  0  0  0  0
    5.8859   -0.8549    1.9968 Cl  0  0  0  0  0  0  0  0  0  0  0  0
    7.3847   -3.3160    1.8922 F   0  0  0  0  0  0  0  0  0  0  0  0
    1.6783   -4.3601    1.0960 Cl  0  0  0  0  0  0  0  0  0  0  0  0
    3.2076   -0.4590    0.6180 O   0  0  0  0  0  0  0  0  0  0  0  0
    2.2841    0.5362    0.4236 C   0  0  0  0  0  0  0  0  0  0  0  0
    1.0571    0.2834   -0.1919 C   0  0  0  0  0  0  0  0  0  0  0  0
    0.1592    1.3346   -0.3842 C   0  0  0  0  0  0  0  0  0  0  0  0
    0.5698    2.5984    0.0319 C   0  0  0  0  0  0  0  0  0  0  0  0
    1.7700    2.8766    0.6034 N   0  0  0  0  0  0  0  0  0  0  0  0
    2.6124    1.8478    0.7849 C   0  0  0  0  0  0  0  0  0  0  0  0
    3.8085    2.1397    1.4438 N   0  0  0  0  0  0  0  0  0  0  0  0
   -1.1544    1.1036   -0.9553 C   0  0  0  0  0  0  0  0  0  0  0  0
   -1.9799   -0.0455   -0.9339 C   0  0  0  0  0  0  0  0  0  0  0  0
   -3.1496    0.1494   -1.5477 N   0  0  0  0  0  0  0  0  0  0  0  0
   -3.0886    1.4307   -1.9610 N   0  0  0  0  0  0  0  0  0  0  0  0
   -1.9014    2.0384   -1.6483 C   0  0  0  0  0  0  0  0  0  0  0  0
   -4.2327    2.0127   -2.6532 C   0  0  0  0  0  0  0  0  0  0  0  0
   -3.9335    2.2683   -4.1352 C   0  0  0  0  0  0  0  0  0  0  0  0
   -5.1429    2.8921   -4.8254 C   0  0  0  0  0  0  0  0  0  0  0  0
   -5.5737    4.1203   -4.1509 N   0  0  0  0  0  0  0  0  0  0  0  0
   -5.9133    3.8757   -2.7462 C   0  0  0  0  0  0  0  0  0  0  0  0
   -4.7349    3.2937   -1.9717 C   0  0  0  0  0  0  0  0  0  0  0  0
    1.7753   -0.2271    3.0597 H   0  0  0  0  0  0  0  0  0  0  0  0
    2.4557   -1.7167    3.7230 H   0  0  0  0  0  0  0  0  0  0  0  0
    3.5012   -0.3350    3.3285 H   0  0  0  0  0  0  0  0  0  0  0  0
    1.8018   -1.8214    1.2575 H   0  0  0  0  0  0  0  0  0  0  0  0
    3.8918   -6.0272    1.1171 H   0  0  0  0  0  0  0  0  0  0  0  0
    6.3206   -5.6134    1.4570 H   0  0  0  0  0  0  0  0  0  0  0  0
    0.8201   -0.7217   -0.5278 H   0  0  0  0  0  0  0  0  0  0  0  0
   -0.0791    3.4626   -0.0655 H   0  0  0  0  0  0  0  0  0  0  0  0
    4.5982    1.6953    0.9913 H   0  0  0  0  0  0  0  0  0  0  0  0
    3.8965    3.1476    1.5298 H   0  0  0  0  0  0  0  0  0  0  0  0
   -1.7841   -1.0126   -0.4841 H   0  0  0  0  0  0  0  0  0  0  0  0
   -1.7008    3.0617   -1.9368 H   0  0  0  0  0  0  0  0  0  0  0  0
   -5.0353    1.2627   -2.5910 H   0  0  0  0  0  0  0  0  0  0  0  0
   -3.0678    2.9346   -4.2361 H   0  0  0  0  0  0  0  0  0  0  0  0
   -3.6696    1.3309   -4.6353 H   0  0  0  0  0  0  0  0  0  0  0  0
   -4.8941    3.1283   -5.8660 H   0  0  0  0  0  0  0  0  0  0  0  0
   -5.9732    2.1738   -4.8595 H   0  0  0  0  0  0  0  0  0  0  0  0
   -4.8342    4.8229   -4.2102 H   0  0  0  0  0  0  0  0  0  0  0  0
   -6.7784    3.2022   -2.6855 H   0  0  0  0  0  0  0  0  0  0  0  0
   -6.2186    4.8238   -2.2827 H   0  0  0  0  0  0  0  0  0  0  0  0
   -5.0342    3.0792   -0.9376 H   0  0  0  0  0  0  0  0  0  0  0  0
   -3.9345    4.0442   -1.9170 H   0  0  0  0  0  0  0  0  0  0  0  0
  1  2  1  0
  2  3  1  0
  3  4  2  0
  4  5  1  0
  5  6  2  0
  6  7  1  0
  7  8  2  0
  8  9  1  0
  7 10  1  0
  4 11  1  0
  2 12  1  0
 12 13  1  0
 13 14  2  0
 14 15  1  0
 15 16  2  0
 16 17  1  0
 17 18  2  0
 18 19  1  0
 15 20  1  0
 20 21  1  0
 21 22  2  0
 22 23  1  0
 23 24  1  0
 23 25  1  0
 25 26  1  0
 26 27  1  0
 27 28  1  0
 28 29  1  0
 29 30  1  0
  8  3  1  0
 18 13  1  0
 24 20  2  0
 30 25  1  0
  1 31  1  0
  1 32  1  0
  1 33  1  0
  2 34  1  6
  5 35  1  0
  6 36  1  0
 14 37  1  0
 16 38  1  0
 19 39  1  0
 19 40  1  0
 21 41  1  0
 24 42  1  0
 25 43  1  0
 26 44  1  0
 26 45  1  0
 27 46  1  0
 27 47  1  0
 28 48  1  0
 29 49  1  0
 29 50  1  0
 30 51  1  0
 30 52  1  0
M  END
>  <energy_abs>  (31) 
26.212195971447972

>  <SMILES>  (31) 
C[C@H](c1c(ccc(c1Cl)F)Cl)Oc2cc(cnc2N)c3cnn(c3)C4CCNCC4

>  <cluster_no>  (31) 
31

>  <fda_drugs_id>  (31) 
KTEIFNKAUNYNJU-GFCCVEGCSA-N

>  <initial_conformation_id>  (31) 
285

>  <minimize_method>  (31) 
MMFF

$$$$

     RDKit          3D

 52 55  0  0  0  0  0  0  0  0999 V2000
    3.6246   -1.0168   -0.8838 C   0  0  0  0  0  0  0  0  0  0  0  0
    3.8462   -0.9632    0.6347 C   0  0  2  0  0  0  0  0  0  0  0  0
    4.3965   -2.2961    1.1434 C   0  0  0  0  0  0  0  0  0  0  0  0
    5.7593   -2.4285    1.4995 C   0  0  0  0  0  0  0  0  0  0  0  0
    6.2756   -3.6440    1.9719 C   0  0  0  0  0  0  0  0  0  0  0  0
    5.4588   -4.7644    2.0829 C   0  0  0  0  0  0  0  0  0  0  0  0
    4.1217   -4.6624    1.7270 C   0  0  0  0  0  0  0  0  0  0  0  0
    3.5842   -3.4531    1.2607 C   0  0  0  0  0  0  0  0  0  0  0  0
    1.8941   -3.4693    0.8485 Cl  0  0  0  0  0  0  0  0  0  0  0  0
    3.3465   -5.7522    1.8464 F   0  0  0  0  0  0  0  0  0  0  0  0
    6.8879   -1.1200    1.3731 Cl  0  0  0  0  0  0  0  0  0  0  0  0
    2.6713   -0.6454    1.4040 O   0  0  0  0  0  0  0  0  0  0  0  0
    2.0733    0.5423    1.0739 C   0  0  0  0  0  0  0  0  0  0  0  0
    0.8646    0.4676    0.3713 C   0  0  0  0  0  0  0  0  0  0  0  0
    0.1781    1.6363    0.0427 C   0  0  0  0  0  0  0  0  0  0  0  0
    0.7535    2.8322    0.4666 C   0  0  0  0  0  0  0  0  0  0  0  0
    1.9089    2.9302    1.1775 N   0  0  0  0  0  0  0  0  0  0  0  0
    2.5412    1.7903    1.5065 C   0  0  0  0  0  0  0  0  0  0  0  0
    3.7000    1.9217    2.2865 N   0  0  0  0  0  0  0  0  0  0  0  0
   -1.0671    1.5854   -0.7008 C   0  0  0  0  0  0  0  0  0  0  0  0
   -1.9409    0.5028   -0.9604 C   0  0  0  0  0  0  0  0  0  0  0  0
   -3.0002    0.8551   -1.6886 N   0  0  0  0  0  0  0  0  0  0  0  0
   -2.8172    2.1681   -1.9105 N   0  0  0  0  0  0  0  0  0  0  0  0
   -1.6658    2.6502   -1.3454 C   0  0  0  0  0  0  0  0  0  0  0  0
   -3.8014    2.9374   -2.6659 C   0  0  0  0  0  0  0  0  0  0  0  0
   -5.2165    2.8105   -2.0782 C   0  0  0  0  0  0  0  0  0  0  0  0
   -6.0681    1.8541   -2.9050 C   0  0  0  0  0  0  0  0  0  0  0  0
   -6.2203    2.2930   -4.2921 N   0  0  0  0  0  0  0  0  0  0  0  0
   -5.0534    2.9850   -4.8386 C   0  0  0  0  0  0  0  0  0  0  0  0
   -3.7506    2.5858   -4.1591 C   0  0  0  0  0  0  0  0  0  0  0  0
    3.3334   -0.0361   -1.2713 H   0  0  0  0  0  0  0  0  0  0  0  0
    4.5420   -1.3167   -1.4040 H   0  0  0  0  0  0  0  0  0  0  0  0
    2.8275   -1.7138   -1.1687 H   0  0  0  0  0  0  0  0  0  0  0  0
    4.5717   -0.1720    0.8301 H   0  0  0  0  0  0  0  0  0  0  0  0
    7.3257   -3.7225    2.2502 H   0  0  0  0  0  0  0  0  0  0  0  0
    5.8476   -5.7107    2.4469 H   0  0  0  0  0  0  0  0  0  0  0  0
    0.4854   -0.5115    0.0886 H   0  0  0  0  0  0  0  0  0  0  0  0
    0.2898    3.7947    0.2619 H   0  0  0  0  0  0  0  0  0  0  0  0
    3.6361    1.2752    3.0733 H   0  0  0  0  0  0  0  0  0  0  0  0
    4.5210    1.6844    1.7409 H   0  0  0  0  0  0  0  0  0  0  0  0
   -1.8556   -0.5297   -0.6428 H   0  0  0  0  0  0  0  0  0  0  0  0
   -1.3888    3.6904   -1.4497 H   0  0  0  0  0  0  0  0  0  0  0  0
   -3.5005    3.9879   -2.5507 H   0  0  0  0  0  0  0  0  0  0  0  0
   -5.6959    3.8001   -2.0816 H   0  0  0  0  0  0  0  0  0  0  0  0
   -5.1925    2.4888   -1.0316 H   0  0  0  0  0  0  0  0  0  0  0  0
   -5.6305    0.8480   -2.8952 H   0  0  0  0  0  0  0  0  0  0  0  0
   -7.0631    1.7616   -2.4541 H   0  0  0  0  0  0  0  0  0  0  0  0
   -7.0489    2.8778   -4.3947 H   0  0  0  0  0  0  0  0  0  0  0  0
   -4.9926    2.7714   -5.9111 H   0  0  0  0  0  0  0  0  0  0  0  0
   -5.1958    4.0691   -4.7374 H   0  0  0  0  0  0  0  0  0  0  0  0
   -3.5733    1.5127   -4.3121 H   0  0  0  0  0  0  0  0  0  0  0  0
   -2.9075    3.1008   -4.6315 H   0  0  0  0  0  0  0  0  0  0  0  0
  1  2  1  0
  2  3  1  0
  3  4  2  0
  4  5  1  0
  5  6  2  0
  6  7  1  0
  7  8  2  0
  8  9  1  0
  7 10  1  0
  4 11  1  0
  2 12  1  0
 12 13  1  0
 13 14  2  0
 14 15  1  0
 15 16  2  0
 16 17  1  0
 17 18  2  0
 18 19  1  0
 15 20  1  0
 20 21  1  0
 21 22  2  0
 22 23  1  0
 23 24  1  0
 23 25  1  0
 25 26  1  0
 26 27  1  0
 27 28  1  0
 28 29  1  0
 29 30  1  0
  8  3  1  0
 18 13  1  0
 24 20  2  0
 30 25  1  0
  1 31  1  0
  1 32  1  0
  1 33  1  0
  2 34  1  6
  5 35  1  0
  6 36  1  0
 14 37  1  0
 16 38  1  0
 19 39  1  0
 19 40  1  0
 21 41  1  0
 24 42  1  0
 25 43  1  0
 26 44  1  0
 26 45  1  0
 27 46  1  0
 27 47  1  0
 28 48  1  0
 29 49  1  0
 29 50  1  0
 30 51  1  0
 30 52  1  0
M  END
>  <energy_abs>  (32) 
42.69502078381777

>  <SMILES>  (32) 
C[C@H](c1c(ccc(c1Cl)F)Cl)Oc2cc(cnc2N)c3cnn(c3)C4CCNCC4

>  <cluster_no>  (32) 
32

>  <fda_drugs_id>  (32) 
KTEIFNKAUNYNJU-GFCCVEGCSA-N

>  <initial_conformation_id>  (32) 
284

>  <minimize_method>  (32) 
MMFF

$$$$

     RDKit          3D

 52 55  0  0  0  0  0  0  0  0999 V2000
    2.5202   -0.9821    3.0589 C   0  0  0  0  0  0  0  0  0  0  0  0
    2.8278   -1.2889    1.5889 C   0  0  2  0  0  0  0  0  0  0  0  0
    3.7920   -2.4664    1.4660 C   0  0  0  0  0  0  0  0  0  0  0  0
    5.1739   -2.3511    1.7495 C   0  0  0  0  0  0  0  0  0  0  0  0
    6.0398   -3.4486    1.6229 C   0  0  0  0  0  0  0  0  0  0  0  0
    5.5544   -4.6871    1.2216 C   0  0  0  0  0  0  0  0  0  0  0  0
    4.2012   -4.8274    0.9561 C   0  0  0  0  0  0  0  0  0  0  0  0
    3.3217   -3.7430    1.0772 C   0  0  0  0  0  0  0  0  0  0  0  0
    1.6476   -4.0546    0.7492 Cl  0  0  0  0  0  0  0  0  0  0  0  0
    3.7503   -6.0347    0.5835 F   0  0  0  0  0  0  0  0  0  0  0  0
    5.9135   -0.8797    2.2884 Cl  0  0  0  0  0  0  0  0  0  0  0  0
    3.3983   -0.1556    0.9092 O   0  0  0  0  0  0  0  0  0  0  0  0
    2.5317    0.8787    0.6676 C   0  0  0  0  0  0  0  0  0  0  0  0
    1.3680    0.7201   -0.0856 C   0  0  0  0  0  0  0  0  0  0  0  0
    0.5411    1.8217   -0.3165 C   0  0  0  0  0  0  0  0  0  0  0  0
    0.9556    3.0410    0.2139 C   0  0  0  0  0  0  0  0  0  0  0  0
    2.0961    3.2278    0.9235 N   0  0  0  0  0  0  0  0  0  0  0  0
    2.8778    2.1559    1.1311 C   0  0  0  0  0  0  0  0  0  0  0  0
    4.0766    2.3527    1.8393 N   0  0  0  0  0  0  0  0  0  0  0  0
   -0.6814    1.6901   -1.0875 C   0  0  0  0  0  0  0  0  0  0  0  0
   -1.0603    0.7407   -2.0654 C   0  0  0  0  0  0  0  0  0  0  0  0
   -2.2899    0.9480   -2.5415 N   0  0  0  0  0  0  0  0  0  0  0  0
   -2.7118    2.0368   -1.8704 N   0  0  0  0  0  0  0  0  0  0  0  0
   -1.7834    2.5150   -0.9862 C   0  0  0  0  0  0  0  0  0  0  0  0
   -4.0414    2.5896   -2.1185 C   0  0  0  0  0  0  0  0  0  0  0  0
   -4.1047    3.2557   -3.5007 C   0  0  0  0  0  0  0  0  0  0  0  0
   -5.5474    3.3860   -3.9691 C   0  0  0  0  0  0  0  0  0  0  0  0
   -6.2577    2.1110   -4.0543 N   0  0  0  0  0  0  0  0  0  0  0  0
   -5.6737    1.0352   -3.2495 C   0  0  0  0  0  0  0  0  0  0  0  0
   -5.1510    1.5461   -1.9128 C   0  0  0  0  0  0  0  0  0  0  0  0
    2.1600   -1.8735    3.5833 H   0  0  0  0  0  0  0  0  0  0  0  0
    1.7479   -0.2096    3.1390 H   0  0  0  0  0  0  0  0  0  0  0  0
    3.3933   -0.5982    3.5943 H   0  0  0  0  0  0  0  0  0  0  0  0
    1.8859   -1.5402    1.0988 H   0  0  0  0  0  0  0  0  0  0  0  0
    7.1009   -3.3397    1.8410 H   0  0  0  0  0  0  0  0  0  0  0  0
    6.2167   -5.5415    1.1214 H   0  0  0  0  0  0  0  0  0  0  0  0
    1.1162   -0.2510   -0.4985 H   0  0  0  0  0  0  0  0  0  0  0  0
    0.3794    3.9509    0.0697 H   0  0  0  0  0  0  0  0  0  0  0  0
    4.0785    1.7336    2.6444 H   0  0  0  0  0  0  0  0  0  0  0  0
    4.8383    2.0304    1.2462 H   0  0  0  0  0  0  0  0  0  0  0  0
   -0.4902   -0.0925   -2.4557 H   0  0  0  0  0  0  0  0  0  0  0  0
   -1.9933    3.3781   -0.3696 H   0  0  0  0  0  0  0  0  0  0  0  0
   -4.1822    3.3654   -1.3533 H   0  0  0  0  0  0  0  0  0  0  0  0
   -3.5358    2.6843   -4.2461 H   0  0  0  0  0  0  0  0  0  0  0  0
   -3.6336    4.2453   -3.4546 H   0  0  0  0  0  0  0  0  0  0  0  0
   -5.5760    3.8796   -4.9472 H   0  0  0  0  0  0  0  0  0  0  0  0
   -6.0948    4.0399   -3.2795 H   0  0  0  0  0  0  0  0  0  0  0  0
   -6.3078    1.8018   -5.0259 H   0  0  0  0  0  0  0  0  0  0  0  0
   -4.8687    0.5464   -3.8111 H   0  0  0  0  0  0  0  0  0  0  0  0
   -6.4438    0.2758   -3.0763 H   0  0  0  0  0  0  0  0  0  0  0  0
   -4.8115    0.7074   -1.2933 H   0  0  0  0  0  0  0  0  0  0  0  0
   -5.9819    2.0119   -1.3655 H   0  0  0  0  0  0  0  0  0  0  0  0
  1  2  1  0
  2  3  1  0
  3  4  2  0
  4  5  1  0
  5  6  2  0
  6  7  1  0
  7  8  2  0
  8  9  1  0
  7 10  1  0
  4 11  1  0
  2 12  1  0
 12 13  1  0
 13 14  2  0
 14 15  1  0
 15 16  2  0
 16 17  1  0
 17 18  2  0
 18 19  1  0
 15 20  1  0
 20 21  1  0
 21 22  2  0
 22 23  1  0
 23 24  1  0
 23 25  1  0
 25 26  1  0
 26 27  1  0
 27 28  1  0
 28 29  1  0
 29 30  1  0
  8  3  1  0
 18 13  1  0
 24 20  2  0
 30 25  1  0
  1 31  1  0
  1 32  1  0
  1 33  1  0
  2 34  1  6
  5 35  1  0
  6 36  1  0
 14 37  1  0
 16 38  1  0
 19 39  1  0
 19 40  1  0
 21 41  1  0
 24 42  1  0
 25 43  1  0
 26 44  1  0
 26 45  1  0
 27 46  1  0
 27 47  1  0
 28 48  1  0
 29 49  1  0
 29 50  1  0
 30 51  1  0
 30 52  1  0
M  END
>  <energy_abs>  (33) 
38.379508768582575

>  <SMILES>  (33) 
C[C@H](c1c(ccc(c1Cl)F)Cl)Oc2cc(cnc2N)c3cnn(c3)C4CCNCC4

>  <cluster_no>  (33) 
33

>  <fda_drugs_id>  (33) 
KTEIFNKAUNYNJU-GFCCVEGCSA-N

>  <initial_conformation_id>  (33) 
283

>  <minimize_method>  (33) 
MMFF

$$$$

     RDKit          3D

 52 55  0  0  0  0  0  0  0  0999 V2000
    1.4727   -2.7271    1.6740 C   0  0  0  0  0  0  0  0  0  0  0  0
    2.5786   -1.9656    0.9398 C   0  0  2  0  0  0  0  0  0  0  0  0
    3.9235   -2.6684    1.1305 C   0  0  0  0  0  0  0  0  0  0  0  0
    4.4412   -3.5013    0.1087 C   0  0  0  0  0  0  0  0  0  0  0  0
    5.6724   -4.1580    0.2480 C   0  0  0  0  0  0  0  0  0  0  0  0
    6.4121   -4.0183    1.4157 C   0  0  0  0  0  0  0  0  0  0  0  0
    5.9145   -3.2264    2.4406 C   0  0  0  0  0  0  0  0  0  0  0  0
    4.6869   -2.5587    2.3174 C   0  0  0  0  0  0  0  0  0  0  0  0
    4.1722   -1.6318    3.6888 Cl  0  0  0  0  0  0  0  0  0  0  0  0
    6.6371   -3.1278    3.5676 F   0  0  0  0  0  0  0  0  0  0  0  0
    3.5951   -3.7969   -1.3746 Cl  0  0  0  0  0  0  0  0  0  0  0  0
    2.6776   -0.6167    1.4070 O   0  0  0  0  0  0  0  0  0  0  0  0
    1.8339    0.3523    0.9334 C   0  0  0  0  0  0  0  0  0  0  0  0
    0.8245    0.1766   -0.0147 C   0  0  0  0  0  0  0  0  0  0  0  0
    0.0350    1.2635   -0.4107 C   0  0  0  0  0  0  0  0  0  0  0  0
    0.3136    2.4915    0.1805 C   0  0  0  0  0  0  0  0  0  0  0  0
    1.2808    2.6981    1.1053 N   0  0  0  0  0  0  0  0  0  0  0  0
    2.0232    1.6395    1.4702 C   0  0  0  0  0  0  0  0  0  0  0  0
    3.0220    1.8590    2.4399 N   0  0  0  0  0  0  0  0  0  0  0  0
   -1.0193    1.0997   -1.3975 C   0  0  0  0  0  0  0  0  0  0  0  0
   -1.2376    0.0846   -2.3595 C   0  0  0  0  0  0  0  0  0  0  0  0
   -2.3412    0.2815   -3.0830 N   0  0  0  0  0  0  0  0  0  0  0  0
   -2.8473    1.4289   -2.5896 N   0  0  0  0  0  0  0  0  0  0  0  0
   -2.0852    1.9580   -1.5826 C   0  0  0  0  0  0  0  0  0  0  0  0
   -4.0650    1.9803   -3.1779 C   0  0  0  0  0  0  0  0  0  0  0  0
   -3.7787    3.2308   -4.0257 C   0  0  0  0  0  0  0  0  0  0  0  0
   -4.0936    4.5119   -3.2625 C   0  0  0  0  0  0  0  0  0  0  0  0
   -5.4655    4.5794   -2.7628 N   0  0  0  0  0  0  0  0  0  0  0  0
   -6.1305    3.2872   -2.6047 C   0  0  0  0  0  0  0  0  0  0  0  0
   -5.1682    2.2066   -2.1331 C   0  0  0  0  0  0  0  0  0  0  0  0
    1.4216   -3.7713    1.3453 H   0  0  0  0  0  0  0  0  0  0  0  0
    1.6216   -2.7206    2.7582 H   0  0  0  0  0  0  0  0  0  0  0  0
    0.4936   -2.2687    1.4998 H   0  0  0  0  0  0  0  0  0  0  0  0
    2.3573   -1.9336   -0.1277 H   0  0  0  0  0  0  0  0  0  0  0  0
    6.0571   -4.7869   -0.5536 H   0  0  0  0  0  0  0  0  0  0  0  0
    7.3647   -4.5255    1.5377 H   0  0  0  0  0  0  0  0  0  0  0  0
    0.6259   -0.7966   -0.4465 H   0  0  0  0  0  0  0  0  0  0  0  0
   -0.2391    3.3898   -0.0776 H   0  0  0  0  0  0  0  0  0  0  0  0
    2.8353    1.2315    3.2193 H   0  0  0  0  0  0  0  0  0  0  0  0
    3.9055    1.5451    2.0468 H   0  0  0  0  0  0  0  0  0  0  0  0
   -0.6368   -0.7914   -2.5691 H   0  0  0  0  0  0  0  0  0  0  0  0
   -2.3737    2.8752   -1.0869 H   0  0  0  0  0  0  0  0  0  0  0  0
   -4.4246    1.2061   -3.8719 H   0  0  0  0  0  0  0  0  0  0  0  0
   -2.7402    3.2485   -4.3784 H   0  0  0  0  0  0  0  0  0  0  0  0
   -4.4070    3.1994   -4.9265 H   0  0  0  0  0  0  0  0  0  0  0  0
   -3.9056    5.3780   -3.9074 H   0  0  0  0  0  0  0  0  0  0  0  0
   -3.4113    4.6143   -2.4121 H   0  0  0  0  0  0  0  0  0  0  0  0
   -6.0329    5.1829   -3.3602 H   0  0  0  0  0  0  0  0  0  0  0  0
   -6.5880    2.9882   -3.5557 H   0  0  0  0  0  0  0  0  0  0  0  0
   -6.9453    3.3983   -1.8807 H   0  0  0  0  0  0  0  0  0  0  0  0
   -5.7101    1.2674   -1.9630 H   0  0  0  0  0  0  0  0  0  0  0  0
   -4.7555    2.4973   -1.1585 H   0  0  0  0  0  0  0  0  0  0  0  0
  1  2  1  0
  2  3  1  0
  3  4  2  0
  4  5  1  0
  5  6  2  0
  6  7  1  0
  7  8  2  0
  8  9  1  0
  7 10  1  0
  4 11  1  0
  2 12  1  0
 12 13  1  0
 13 14  2  0
 14 15  1  0
 15 16  2  0
 16 17  1  0
 17 18  2  0
 18 19  1  0
 15 20  1  0
 20 21  1  0
 21 22  2  0
 22 23  1  0
 23 24  1  0
 23 25  1  0
 25 26  1  0
 26 27  1  0
 27 28  1  0
 28 29  1  0
 29 30  1  0
  8  3  1  0
 18 13  1  0
 24 20  2  0
 30 25  1  0
  1 31  1  0
  1 32  1  0
  1 33  1  0
  2 34  1  6
  5 35  1  0
  6 36  1  0
 14 37  1  0
 16 38  1  0
 19 39  1  0
 19 40  1  0
 21 41  1  0
 24 42  1  0
 25 43  1  0
 26 44  1  0
 26 45  1  0
 27 46  1  0
 27 47  1  0
 28 48  1  0
 29 49  1  0
 29 50  1  0
 30 51  1  0
 30 52  1  0
M  END
>  <energy_abs>  (34) 
39.71740345622739

>  <SMILES>  (34) 
C[C@H](c1c(ccc(c1Cl)F)Cl)Oc2cc(cnc2N)c3cnn(c3)C4CCNCC4

>  <cluster_no>  (34) 
34

>  <fda_drugs_id>  (34) 
KTEIFNKAUNYNJU-GFCCVEGCSA-N

>  <initial_conformation_id>  (34) 
282

>  <minimize_method>  (34) 
MMFF

$$$$

     RDKit          3D

 52 55  0  0  0  0  0  0  0  0999 V2000
    4.7074   -0.2102    0.0977 C   0  0  0  0  0  0  0  0  0  0  0  0
    4.0116   -0.8368    1.3108 C   0  0  2  0  0  0  0  0  0  0  0  0
    4.3884   -2.3121    1.4553 C   0  0  0  0  0  0  0  0  0  0  0  0
    5.2796   -2.7307    2.4702 C   0  0  0  0  0  0  0  0  0  0  0  0
    5.6169   -4.0813    2.6394 C   0  0  0  0  0  0  0  0  0  0  0  0
    5.1007   -5.0439    1.7807 C   0  0  0  0  0  0  0  0  0  0  0  0
    4.2511   -4.6542    0.7567 C   0  0  0  0  0  0  0  0  0  0  0  0
    3.8853   -3.3118    0.5898 C   0  0  0  0  0  0  0  0  0  0  0  0
    2.8118   -2.9650   -0.7243 Cl  0  0  0  0  0  0  0  0  0  0  0  0
    3.7863   -5.6019   -0.0718 F   0  0  0  0  0  0  0  0  0  0  0  0
    6.0119   -1.6277    3.5886 Cl  0  0  0  0  0  0  0  0  0  0  0  0
    2.5797   -0.7396    1.3004 O   0  0  0  0  0  0  0  0  0  0  0  0
    2.0039    0.4832    1.0822 C   0  0  0  0  0  0  0  0  0  0  0  0
    0.9483    0.4607    0.1612 C   0  0  0  0  0  0  0  0  0  0  0  0
    0.2346    1.6228   -0.1396 C   0  0  0  0  0  0  0  0  0  0  0  0
    0.6493    2.7760    0.5167 C   0  0  0  0  0  0  0  0  0  0  0  0
    1.6480    2.8288    1.4317 N   0  0  0  0  0  0  0  0  0  0  0  0
    2.2844    1.6853    1.7432 C   0  0  0  0  0  0  0  0  0  0  0  0
    3.2113    1.7973    2.7762 N   0  0  0  0  0  0  0  0  0  0  0  0
   -0.8914    1.6033   -1.0606 C   0  0  0  0  0  0  0  0  0  0  0  0
   -1.4807    0.5343   -1.7793 C   0  0  0  0  0  0  0  0  0  0  0  0
   -2.5448    0.9077   -2.4929 N   0  0  0  0  0  0  0  0  0  0  0  0
   -2.6527    2.2231   -2.2410 N   0  0  0  0  0  0  0  0  0  0  0  0
   -1.6809    2.6861   -1.3956 C   0  0  0  0  0  0  0  0  0  0  0  0
   -3.7588    3.0051   -2.7895 C   0  0  0  0  0  0  0  0  0  0  0  0
   -4.1016    2.6405   -4.2445 C   0  0  0  0  0  0  0  0  0  0  0  0
   -5.2816    1.6760   -4.3125 C   0  0  0  0  0  0  0  0  0  0  0  0
   -6.4891    2.1863   -3.6648 N   0  0  0  0  0  0  0  0  0  0  0  0
   -6.2639    3.1939   -2.6361 C   0  0  0  0  0  0  0  0  0  0  0  0
   -4.9799    2.9374   -1.8595 C   0  0  0  0  0  0  0  0  0  0  0  0
    4.5007    0.8636    0.0301 H   0  0  0  0  0  0  0  0  0  0  0  0
    5.7938   -0.3359    0.1591 H   0  0  0  0  0  0  0  0  0  0  0  0
    4.3689   -0.6401   -0.8498 H   0  0  0  0  0  0  0  0  0  0  0  0
    4.3474   -0.3162    2.2012 H   0  0  0  0  0  0  0  0  0  0  0  0
    6.2961   -4.3869    3.4316 H   0  0  0  0  0  0  0  0  0  0  0  0
    5.3562   -6.0928    1.8994 H   0  0  0  0  0  0  0  0  0  0  0  0
    0.6922   -0.4874   -0.3056 H   0  0  0  0  0  0  0  0  0  0  0  0
    0.1746    3.7364    0.3477 H   0  0  0  0  0  0  0  0  0  0  0  0
    4.1596    1.7019    2.4375 H   0  0  0  0  0  0  0  0  0  0  0  0
    3.0193    1.0921    3.4789 H   0  0  0  0  0  0  0  0  0  0  0  0
   -1.1854   -0.5080   -1.8095 H   0  0  0  0  0  0  0  0  0  0  0  0
   -1.6609    3.7213   -1.1054 H   0  0  0  0  0  0  0  0  0  0  0  0
   -3.3906    4.0410   -2.8052 H   0  0  0  0  0  0  0  0  0  0  0  0
   -4.3698    3.5593   -4.7884 H   0  0  0  0  0  0  0  0  0  0  0  0
   -3.2395    2.2157   -4.7721 H   0  0  0  0  0  0  0  0  0  0  0  0
   -5.0207    0.7194   -3.8389 H   0  0  0  0  0  0  0  0  0  0  0  0
   -5.5059    1.4483   -5.3607 H   0  0  0  0  0  0  0  0  0  0  0  0
   -7.1924    2.4838   -4.3374 H   0  0  0  0  0  0  0  0  0  0  0  0
   -7.1160    3.1935   -1.9464 H   0  0  0  0  0  0  0  0  0  0  0  0
   -6.2262    4.1900   -3.0978 H   0  0  0  0  0  0  0  0  0  0  0  0
   -4.8714    3.6783   -1.0574 H   0  0  0  0  0  0  0  0  0  0  0  0
   -5.0438    1.9597   -1.3628 H   0  0  0  0  0  0  0  0  0  0  0  0
  1  2  1  0
  2  3  1  0
  3  4  2  0
  4  5  1  0
  5  6  2  0
  6  7  1  0
  7  8  2  0
  8  9  1  0
  7 10  1  0
  4 11  1  0
  2 12  1  0
 12 13  1  0
 13 14  2  0
 14 15  1  0
 15 16  2  0
 16 17  1  0
 17 18  2  0
 18 19  1  0
 15 20  1  0
 20 21  1  0
 21 22  2  0
 22 23  1  0
 23 24  1  0
 23 25  1  0
 25 26  1  0
 26 27  1  0
 27 28  1  0
 28 29  1  0
 29 30  1  0
  8  3  1  0
 18 13  1  0
 24 20  2  0
 30 25  1  0
  1 31  1  0
  1 32  1  0
  1 33  1  0
  2 34  1  1
  5 35  1  0
  6 36  1  0
 14 37  1  0
 16 38  1  0
 19 39  1  0
 19 40  1  0
 21 41  1  0
 24 42  1  0
 25 43  1  0
 26 44  1  0
 26 45  1  0
 27 46  1  0
 27 47  1  0
 28 48  1  0
 29 49  1  0
 29 50  1  0
 30 51  1  0
 30 52  1  0
M  END
>  <energy_abs>  (35) 
45.48302463036156

>  <SMILES>  (35) 
C[C@H](c1c(ccc(c1Cl)F)Cl)Oc2cc(cnc2N)c3cnn(c3)C4CCNCC4

>  <cluster_no>  (35) 
35

>  <fda_drugs_id>  (35) 
KTEIFNKAUNYNJU-GFCCVEGCSA-N

>  <initial_conformation_id>  (35) 
281

>  <minimize_method>  (35) 
MMFF

$$$$

     RDKit          3D

 52 55  0  0  0  0  0  0  0  0999 V2000
    4.2788   -0.2047    2.8353 C   0  0  0  0  0  0  0  0  0  0  0  0
    3.4023   -0.8076    1.7340 C   0  0  2  0  0  0  0  0  0  0  0  0
    3.7210   -2.2802    1.4899 C   0  0  0  0  0  0  0  0  0  0  0  0
    2.8162   -3.2883    1.9010 C   0  0  0  0  0  0  0  0  0  0  0  0
    3.0859   -4.6484    1.6896 C   0  0  0  0  0  0  0  0  0  0  0  0
    4.2625   -5.0415    1.0657 C   0  0  0  0  0  0  0  0  0  0  0  0
    5.1669   -4.0718    0.6568 C   0  0  0  0  0  0  0  0  0  0  0  0
    4.9147   -2.7070    0.8602 C   0  0  0  0  0  0  0  0  0  0  0  0
    6.1362   -1.6076    0.3079 Cl  0  0  0  0  0  0  0  0  0  0  0  0
    6.2983   -4.4767    0.0598 F   0  0  0  0  0  0  0  0  0  0  0  0
    1.3183   -2.9371    2.6988 Cl  0  0  0  0  0  0  0  0  0  0  0  0
    3.5692   -0.0838    0.5013 O   0  0  0  0  0  0  0  0  0  0  0  0
    2.5870    0.8489    0.2989 C   0  0  0  0  0  0  0  0  0  0  0  0
    1.2976    0.4540   -0.0605 C   0  0  0  0  0  0  0  0  0  0  0  0
    0.3263    1.4256   -0.3026 C   0  0  0  0  0  0  0  0  0  0  0  0
    0.7256    2.7564   -0.1861 C   0  0  0  0  0  0  0  0  0  0  0  0
    1.9806    3.1665    0.1331 N   0  0  0  0  0  0  0  0  0  0  0  0
    2.8970    2.2096    0.3571 C   0  0  0  0  0  0  0  0  0  0  0  0
    4.1713    2.6444    0.7216 N   0  0  0  0  0  0  0  0  0  0  0  0
   -1.0323    1.0532   -0.6478 C   0  0  0  0  0  0  0  0  0  0  0  0
   -1.7613   -0.1288   -0.3815 C   0  0  0  0  0  0  0  0  0  0  0  0
   -3.0000   -0.0975   -0.8781 N   0  0  0  0  0  0  0  0  0  0  0  0
   -3.0792    1.1105   -1.4656 N   0  0  0  0  0  0  0  0  0  0  0  0
   -1.9206    1.8330   -1.3597 C   0  0  0  0  0  0  0  0  0  0  0  0
   -4.3234    1.5115   -2.1196 C   0  0  0  0  0  0  0  0  0  0  0  0
   -4.1413    1.6019   -3.6404 C   0  0  0  0  0  0  0  0  0  0  0  0
   -5.2835    2.3867   -4.2712 C   0  0  0  0  0  0  0  0  0  0  0  0
   -5.4403    3.7374   -3.7363 N   0  0  0  0  0  0  0  0  0  0  0  0
   -4.7743    3.9796   -2.4603 C   0  0  0  0  0  0  0  0  0  0  0  0
   -4.9147    2.7943   -1.5125 C   0  0  0  0  0  0  0  0  0  0  0  0
    3.9430    0.8112    3.0720 H   0  0  0  0  0  0  0  0  0  0  0  0
    5.3267   -0.1177    2.5386 H   0  0  0  0  0  0  0  0  0  0  0  0
    4.2297   -0.7993    3.7540 H   0  0  0  0  0  0  0  0  0  0  0  0
    2.3689   -0.7022    2.0776 H   0  0  0  0  0  0  0  0  0  0  0  0
    2.3768   -5.4086    2.0141 H   0  0  0  0  0  0  0  0  0  0  0  0
    4.4818   -6.0907    0.8960 H   0  0  0  0  0  0  0  0  0  0  0  0
    1.0722   -0.6031   -0.1597 H   0  0  0  0  0  0  0  0  0  0  0  0
    0.0266    3.5743   -0.3431 H   0  0  0  0  0  0  0  0  0  0  0  0
    4.8837    2.1513    0.1922 H   0  0  0  0  0  0  0  0  0  0  0  0
    4.2024    3.6517    0.5987 H   0  0  0  0  0  0  0  0  0  0  0  0
   -1.4452   -1.0109    0.1600 H   0  0  0  0  0  0  0  0  0  0  0  0
   -1.8328    2.8170   -1.7982 H   0  0  0  0  0  0  0  0  0  0  0  0
   -5.0370    0.7012   -1.9107 H   0  0  0  0  0  0  0  0  0  0  0  0
   -4.1007    0.5920   -4.0691 H   0  0  0  0  0  0  0  0  0  0  0  0
   -3.1876    2.0806   -3.9003 H   0  0  0  0  0  0  0  0  0  0  0  0
   -5.1360    2.4432   -5.3557 H   0  0  0  0  0  0  0  0  0  0  0  0
   -6.2249    1.8453   -4.1174 H   0  0  0  0  0  0  0  0  0  0  0  0
   -5.1489    4.4344   -4.4225 H   0  0  0  0  0  0  0  0  0  0  0  0
   -3.7150    4.2060   -2.6292 H   0  0  0  0  0  0  0  0  0  0  0  0
   -5.2169    4.8696   -1.9991 H   0  0  0  0  0  0  0  0  0  0  0  0
   -5.9826    2.6312   -1.3115 H   0  0  0  0  0  0  0  0  0  0  0  0
   -4.4595    3.0346   -0.5441 H   0  0  0  0  0  0  0  0  0  0  0  0
  1  2  1  0
  2  3  1  0
  3  4  2  0
  4  5  1  0
  5  6  2  0
  6  7  1  0
  7  8  2  0
  8  9  1  0
  7 10  1  0
  4 11  1  0
  2 12  1  0
 12 13  1  0
 13 14  2  0
 14 15  1  0
 15 16  2  0
 16 17  1  0
 17 18  2  0
 18 19  1  0
 15 20  1  0
 20 21  1  0
 21 22  2  0
 22 23  1  0
 23 24  1  0
 23 25  1  0
 25 26  1  0
 26 27  1  0
 27 28  1  0
 28 29  1  0
 29 30  1  0
  8  3  1  0
 18 13  1  0
 24 20  2  0
 30 25  1  0
  1 31  1  0
  1 32  1  0
  1 33  1  0
  2 34  1  1
  5 35  1  0
  6 36  1  0
 14 37  1  0
 16 38  1  0
 19 39  1  0
 19 40  1  0
 21 41  1  0
 24 42  1  0
 25 43  1  0
 26 44  1  0
 26 45  1  0
 27 46  1  0
 27 47  1  0
 28 48  1  0
 29 49  1  0
 29 50  1  0
 30 51  1  0
 30 52  1  0
M  END
>  <energy_abs>  (36) 
29.912754049388425

>  <SMILES>  (36) 
C[C@H](c1c(ccc(c1Cl)F)Cl)Oc2cc(cnc2N)c3cnn(c3)C4CCNCC4

>  <cluster_no>  (36) 
36

>  <fda_drugs_id>  (36) 
KTEIFNKAUNYNJU-GFCCVEGCSA-N

>  <initial_conformation_id>  (36) 
280

>  <minimize_method>  (36) 
MMFF

$$$$

     RDKit          3D

 52 55  0  0  0  0  0  0  0  0999 V2000
    5.6834   -1.0943    1.6118 C   0  0  0  0  0  0  0  0  0  0  0  0
    4.2008   -0.7261    1.5217 C   0  0  2  0  0  0  0  0  0  0  0  0
    3.3675   -1.8945    0.9982 C   0  0  0  0  0  0  0  0  0  0  0  0
    2.5697   -2.6550    1.8852 C   0  0  0  0  0  0  0  0  0  0  0  0
    1.7821   -3.7234    1.4319 C   0  0  0  0  0  0  0  0  0  0  0  0
    1.7736   -4.0669    0.0866 C   0  0  0  0  0  0  0  0  0  0  0  0
    2.5605   -3.3460   -0.7989 C   0  0  0  0  0  0  0  0  0  0  0  0
    3.3561   -2.2765   -0.3633 C   0  0  0  0  0  0  0  0  0  0  0  0
    4.3045   -1.4799   -1.5750 Cl  0  0  0  0  0  0  0  0  0  0  0  0
    2.5410   -3.7012   -2.0926 F   0  0  0  0  0  0  0  0  0  0  0  0
    2.5102   -2.3496    3.5886 Cl  0  0  0  0  0  0  0  0  0  0  0  0
    4.0777    0.4423    0.6834 O   0  0  0  0  0  0  0  0  0  0  0  0
    3.0226    1.2324    1.0612 C   0  0  0  0  0  0  0  0  0  0  0  0
    1.8752    1.2237    0.2712 C   0  0  0  0  0  0  0  0  0  0  0  0
    0.7906    2.0270    0.6246 C   0  0  0  0  0  0  0  0  0  0  0  0
    0.9438    2.8219    1.7599 C   0  0  0  0  0  0  0  0  0  0  0  0
    2.0643    2.8759    2.5265 N   0  0  0  0  0  0  0  0  0  0  0  0
    3.0935    2.0959    2.1578 C   0  0  0  0  0  0  0  0  0  0  0  0
    4.2391    2.1724    2.9528 N   0  0  0  0  0  0  0  0  0  0  0  0
   -0.4390    2.0469   -0.1466 C   0  0  0  0  0  0  0  0  0  0  0  0
   -1.4654    3.0176   -0.2284 C   0  0  0  0  0  0  0  0  0  0  0  0
   -2.4537    2.6609   -1.0519 N   0  0  0  0  0  0  0  0  0  0  0  0
   -2.0675    1.4539   -1.5082 N   0  0  0  0  0  0  0  0  0  0  0  0
   -0.8685    1.0440   -0.9922 C   0  0  0  0  0  0  0  0  0  0  0  0
   -2.8986    0.7218   -2.4556 C   0  0  0  0  0  0  0  0  0  0  0  0
   -4.3313    0.5345   -1.9491 C   0  0  0  0  0  0  0  0  0  0  0  0
   -5.1408   -0.3138   -2.9314 C   0  0  0  0  0  0  0  0  0  0  0  0
   -4.7346   -0.1542   -4.3301 N   0  0  0  0  0  0  0  0  0  0  0  0
   -4.1944    1.1727   -4.5986 C   0  0  0  0  0  0  0  0  0  0  0  0
   -2.8773    1.3702   -3.8505 C   0  0  0  0  0  0  0  0  0  0  0  0
    5.8381   -1.9729    2.2466 H   0  0  0  0  0  0  0  0  0  0  0  0
    6.1218   -1.2994    0.6307 H   0  0  0  0  0  0  0  0  0  0  0  0
    6.2525   -0.2577    2.0325 H   0  0  0  0  0  0  0  0  0  0  0  0
    3.8983   -0.4630    2.5392 H   0  0  0  0  0  0  0  0  0  0  0  0
    1.1736   -4.2937    2.1314 H   0  0  0  0  0  0  0  0  0  0  0  0
    1.1683   -4.8917   -0.2762 H   0  0  0  0  0  0  0  0  0  0  0  0
    1.8478    0.5960   -0.6134 H   0  0  0  0  0  0  0  0  0  0  0  0
    0.1432    3.4666    2.1136 H   0  0  0  0  0  0  0  0  0  0  0  0
    4.0828    2.9179    3.6262 H   0  0  0  0  0  0  0  0  0  0  0  0
    5.0560    2.3381    2.3740 H   0  0  0  0  0  0  0  0  0  0  0  0
   -1.5346    3.9743    0.2733 H   0  0  0  0  0  0  0  0  0  0  0  0
   -0.4416    0.0894   -1.2664 H   0  0  0  0  0  0  0  0  0  0  0  0
   -2.4445   -0.2761   -2.5386 H   0  0  0  0  0  0  0  0  0  0  0  0
   -4.3366    0.0619   -0.9593 H   0  0  0  0  0  0  0  0  0  0  0  0
   -4.8175    1.5120   -1.8295 H   0  0  0  0  0  0  0  0  0  0  0  0
   -5.0365   -1.3733   -2.6723 H   0  0  0  0  0  0  0  0  0  0  0  0
   -6.2033   -0.0663   -2.8216 H   0  0  0  0  0  0  0  0  0  0  0  0
   -5.5330   -0.3397   -4.9378 H   0  0  0  0  0  0  0  0  0  0  0  0
   -4.0143    1.2843   -5.6737 H   0  0  0  0  0  0  0  0  0  0  0  0
   -4.9211    1.9465   -4.3212 H   0  0  0  0  0  0  0  0  0  0  0  0
   -2.0528    0.9294   -4.4260 H   0  0  0  0  0  0  0  0  0  0  0  0
   -2.6665    2.4453   -3.7969 H   0  0  0  0  0  0  0  0  0  0  0  0
  1  2  1  0
  2  3  1  0
  3  4  2  0
  4  5  1  0
  5  6  2  0
  6  7  1  0
  7  8  2  0
  8  9  1  0
  7 10  1  0
  4 11  1  0
  2 12  1  0
 12 13  1  0
 13 14  2  0
 14 15  1  0
 15 16  2  0
 16 17  1  0
 17 18  2  0
 18 19  1  0
 15 20  1  0
 20 21  1  0
 21 22  2  0
 22 23  1  0
 23 24  1  0
 23 25  1  0
 25 26  1  0
 26 27  1  0
 27 28  1  0
 28 29  1  0
 29 30  1  0
  8  3  1  0
 18 13  1  0
 24 20  2  0
 30 25  1  0
  1 31  1  0
  1 32  1  0
  1 33  1  0
  2 34  1  1
  5 35  1  0
  6 36  1  0
 14 37  1  0
 16 38  1  0
 19 39  1  0
 19 40  1  0
 21 41  1  0
 24 42  1  0
 25 43  1  0
 26 44  1  0
 26 45  1  0
 27 46  1  0
 27 47  1  0
 28 48  1  0
 29 49  1  0
 29 50  1  0
 30 51  1  0
 30 52  1  0
M  END
>  <energy_abs>  (37) 
26.481898497427014

>  <SMILES>  (37) 
C[C@H](c1c(ccc(c1Cl)F)Cl)Oc2cc(cnc2N)c3cnn(c3)C4CCNCC4

>  <cluster_no>  (37) 
37

>  <fda_drugs_id>  (37) 
KTEIFNKAUNYNJU-GFCCVEGCSA-N

>  <initial_conformation_id>  (37) 
279

>  <minimize_method>  (37) 
MMFF

$$$$

     RDKit          3D

 52 55  0  0  0  0  0  0  0  0999 V2000
    3.7533   -0.3884   -0.6510 C   0  0  0  0  0  0  0  0  0  0  0  0
    3.6759   -0.8171    0.8189 C   0  0  2  0  0  0  0  0  0  0  0  0
    4.2897   -2.1990    1.0201 C   0  0  0  0  0  0  0  0  0  0  0  0
    5.5330   -2.3498    1.6741 C   0  0  0  0  0  0  0  0  0  0  0  0
    6.1186   -3.6127    1.8640 C   0  0  0  0  0  0  0  0  0  0  0  0
    5.4844   -4.7544    1.3949 C   0  0  0  0  0  0  0  0  0  0  0  0
    4.2702   -4.6297    0.7380 C   0  0  0  0  0  0  0  0  0  0  0  0
    3.6671   -3.3782    0.5481 C   0  0  0  0  0  0  0  0  0  0  0  0
    2.1503   -3.3697   -0.2873 Cl  0  0  0  0  0  0  0  0  0  0  0  0
    3.6900   -5.7449    0.2744 F   0  0  0  0  0  0  0  0  0  0  0  0
    6.4366   -1.0046    2.2755 Cl  0  0  0  0  0  0  0  0  0  0  0  0
    2.3399   -0.8552    1.3553 O   0  0  0  0  0  0  0  0  0  0  0  0
    1.7280    0.3672    1.4107 C   0  0  0  0  0  0  0  0  0  0  0  0
    0.7617    0.6426    0.4456 C   0  0  0  0  0  0  0  0  0  0  0  0
    0.0656    1.8490    0.4885 C   0  0  0  0  0  0  0  0  0  0  0  0
    0.3957    2.7234    1.5173 C   0  0  0  0  0  0  0  0  0  0  0  0
    1.3080    2.4623    2.4894 N   0  0  0  0  0  0  0  0  0  0  0  0
    1.9409    1.2782    2.4512 C   0  0  0  0  0  0  0  0  0  0  0  0
    2.7998    0.9839    3.5186 N   0  0  0  0  0  0  0  0  0  0  0  0
   -0.9661    2.1787   -0.4771 C   0  0  0  0  0  0  0  0  0  0  0  0
   -1.5151    3.4234   -0.8638 C   0  0  0  0  0  0  0  0  0  0  0  0
   -2.5061    3.2993   -1.7563 N   0  0  0  0  0  0  0  0  0  0  0  0
   -2.5904    1.9726   -1.9517 N   0  0  0  0  0  0  0  0  0  0  0  0
   -1.6906    1.2609   -1.2027 C   0  0  0  0  0  0  0  0  0  0  0  0
   -3.5820    1.4211   -2.8785 C   0  0  0  0  0  0  0  0  0  0  0  0
   -5.0188    1.7167   -2.4192 C   0  0  0  0  0  0  0  0  0  0  0  0
   -5.6642    2.7763   -3.2988 C   0  0  0  0  0  0  0  0  0  0  0  0
   -5.7435    2.3354   -4.6952 N   0  0  0  0  0  0  0  0  0  0  0  0
   -4.5391    1.6706   -5.1936 C   0  0  0  0  0  0  0  0  0  0  0  0
   -3.3078    1.8748   -4.3203 C   0  0  0  0  0  0  0  0  0  0  0  0
    3.0654   -0.9422   -1.2905 H   0  0  0  0  0  0  0  0  0  0  0  0
    4.7662   -0.5105   -1.0497 H   0  0  0  0  0  0  0  0  0  0  0  0
    3.4826    0.6657   -0.7579 H   0  0  0  0  0  0  0  0  0  0  0  0
    4.2372   -0.0770    1.3900 H   0  0  0  0  0  0  0  0  0  0  0  0
    7.0783   -3.7056    2.3627 H   0  0  0  0  0  0  0  0  0  0  0  0
    5.9328   -5.7371    1.5271 H   0  0  0  0  0  0  0  0  0  0  0  0
    0.5666   -0.0932   -0.3280 H   0  0  0  0  0  0  0  0  0  0  0  0
   -0.0923    3.6903    1.6242 H   0  0  0  0  0  0  0  0  0  0  0  0
    3.7525    0.8630    3.1928 H   0  0  0  0  0  0  0  0  0  0  0  0
    2.5003    0.1001    3.9267 H   0  0  0  0  0  0  0  0  0  0  0  0
   -1.2423    4.4170   -0.5286 H   0  0  0  0  0  0  0  0  0  0  0  0
   -1.6626    0.1825   -1.2404 H   0  0  0  0  0  0  0  0  0  0  0  0
   -3.4491    0.3311   -2.8331 H   0  0  0  0  0  0  0  0  0  0  0  0
   -5.0590    2.0253   -1.3667 H   0  0  0  0  0  0  0  0  0  0  0  0
   -5.6121    0.7901   -2.4927 H   0  0  0  0  0  0  0  0  0  0  0  0
   -5.1065    3.7233   -3.2313 H   0  0  0  0  0  0  0  0  0  0  0  0
   -6.6816    2.9779   -2.9381 H   0  0  0  0  0  0  0  0  0  0  0  0
   -5.9642    3.1427   -5.2797 H   0  0  0  0  0  0  0  0  0  0  0  0
   -4.3254    2.0209   -6.2135 H   0  0  0  0  0  0  0  0  0  0  0  0
   -4.7530    0.5968   -5.2762 H   0  0  0  0  0  0  0  0  0  0  0  0
   -2.4615    1.3095   -4.7287 H   0  0  0  0  0  0  0  0  0  0  0  0
   -3.0117    2.9316   -4.3613 H   0  0  0  0  0  0  0  0  0  0  0  0
  1  2  1  0
  2  3  1  0
  3  4  2  0
  4  5  1  0
  5  6  2  0
  6  7  1  0
  7  8  2  0
  8  9  1  0
  7 10  1  0
  4 11  1  0
  2 12  1  0
 12 13  1  0
 13 14  2  0
 14 15  1  0
 15 16  2  0
 16 17  1  0
 17 18  2  0
 18 19  1  0
 15 20  1  0
 20 21  1  0
 21 22  2  0
 22 23  1  0
 23 24  1  0
 23 25  1  0
 25 26  1  0
 26 27  1  0
 27 28  1  0
 28 29  1  0
 29 30  1  0
  8  3  1  0
 18 13  1  0
 24 20  2  0
 30 25  1  0
  1 31  1  0
  1 32  1  0
  1 33  1  0
  2 34  1  1
  5 35  1  0
  6 36  1  0
 14 37  1  0
 16 38  1  0
 19 39  1  0
 19 40  1  0
 21 41  1  0
 24 42  1  0
 25 43  1  0
 26 44  1  0
 26 45  1  0
 27 46  1  0
 27 47  1  0
 28 48  1  0
 29 49  1  0
 29 50  1  0
 30 51  1  0
 30 52  1  0
M  END
>  <energy_abs>  (38) 
40.6585019789006

>  <SMILES>  (38) 
C[C@H](c1c(ccc(c1Cl)F)Cl)Oc2cc(cnc2N)c3cnn(c3)C4CCNCC4

>  <cluster_no>  (38) 
38

>  <fda_drugs_id>  (38) 
KTEIFNKAUNYNJU-GFCCVEGCSA-N

>  <initial_conformation_id>  (38) 
278

>  <minimize_method>  (38) 
MMFF

$$$$

     RDKit          3D

 52 55  0  0  0  0  0  0  0  0999 V2000
    4.0950    0.0307   -0.1410 C   0  0  0  0  0  0  0  0  0  0  0  0
    3.7533   -0.6918    1.1694 C   0  0  2  0  0  0  0  0  0  0  0  0
    4.2367   -2.1418    1.1318 C   0  0  0  0  0  0  0  0  0  0  0  0
    5.3598   -2.5507    1.8800 C   0  0  0  0  0  0  0  0  0  0  0  0
    5.8258   -3.8737    1.8443 C   0  0  0  0  0  0  0  0  0  0  0  0
    5.1825   -4.8235    1.0519 C   0  0  0  0  0  0  0  0  0  0  0  0
    4.0706   -4.4468    0.3135 C   0  0  0  0  0  0  0  0  0  0  0  0
    3.5955   -3.1287    0.3384 C   0  0  0  0  0  0  0  0  0  0  0  0
    2.2109   -2.7934   -0.6576 Cl  0  0  0  0  0  0  0  0  0  0  0  0
    3.4704   -5.3756   -0.4431 F   0  0  0  0  0  0  0  0  0  0  0  0
    6.2757   -1.4604    2.8729 Cl  0  0  0  0  0  0  0  0  0  0  0  0
    2.3596   -0.7134    1.5271 O   0  0  0  0  0  0  0  0  0  0  0  0
    1.7201    0.4981    1.4741 C   0  0  0  0  0  0  0  0  0  0  0  0
    0.7884    0.6678    0.4457 C   0  0  0  0  0  0  0  0  0  0  0  0
    0.0490    1.8459    0.3572 C   0  0  0  0  0  0  0  0  0  0  0  0
    0.3008    2.8071    1.3304 C   0  0  0  0  0  0  0  0  0  0  0  0
    1.1837    2.6601    2.3526 N   0  0  0  0  0  0  0  0  0  0  0  0
    1.8571    1.4985    2.4420 C   0  0  0  0  0  0  0  0  0  0  0  0
    2.7270    1.3647    3.5287 N   0  0  0  0  0  0  0  0  0  0  0  0
   -0.9346    2.0592   -0.6885 C   0  0  0  0  0  0  0  0  0  0  0  0
   -1.5376    3.2442   -1.1743 C   0  0  0  0  0  0  0  0  0  0  0  0
   -2.4278    3.0167   -2.1418 N   0  0  0  0  0  0  0  0  0  0  0  0
   -2.3965    1.6772   -2.2996 N   0  0  0  0  0  0  0  0  0  0  0  0
   -1.5225    1.0627   -1.4401 C   0  0  0  0  0  0  0  0  0  0  0  0
   -3.2665    0.9983   -3.2630 C   0  0  0  0  0  0  0  0  0  0  0  0
   -3.4787    1.7895   -4.5695 C   0  0  0  0  0  0  0  0  0  0  0  0
   -4.8508    2.4657   -4.6302 C   0  0  0  0  0  0  0  0  0  0  0  0
   -5.2711    2.9574   -3.3250 N   0  0  0  0  0  0  0  0  0  0  0  0
   -5.4856    1.8595   -2.3779 C   0  0  0  0  0  0  0  0  0  0  0  0
   -4.6053    0.6289   -2.6195 C   0  0  0  0  0  0  0  0  0  0  0  0
    3.8861    1.1015   -0.0600 H   0  0  0  0  0  0  0  0  0  0  0  0
    3.5172   -0.3364   -0.9930 H   0  0  0  0  0  0  0  0  0  0  0  0
    5.1567   -0.0787   -0.3801 H   0  0  0  0  0  0  0  0  0  0  0  0
    4.2652   -0.1595    1.9702 H   0  0  0  0  0  0  0  0  0  0  0  0
    6.7084   -4.1631    2.4180 H   0  0  0  0  0  0  0  0  0  0  0  0
    5.5462   -5.8479    1.0117 H   0  0  0  0  0  0  0  0  0  0  0  0
    0.6582   -0.1314   -0.2758 H   0  0  0  0  0  0  0  0  0  0  0  0
   -0.2247    3.7589    1.3431 H   0  0  0  0  0  0  0  0  0  0  0  0
    3.6870    1.4206    3.2183 H   0  0  0  0  0  0  0  0  0  0  0  0
    2.5805    0.4664    3.9706 H   0  0  0  0  0  0  0  0  0  0  0  0
   -1.3677    4.2677   -0.8632 H   0  0  0  0  0  0  0  0  0  0  0  0
   -1.4148   -0.0140   -1.4360 H   0  0  0  0  0  0  0  0  0  0  0  0
   -2.7289    0.0757   -3.5178 H   0  0  0  0  0  0  0  0  0  0  0  0
   -3.4110    1.0980   -5.4207 H   0  0  0  0  0  0  0  0  0  0  0  0
   -2.6826    2.5318   -4.7190 H   0  0  0  0  0  0  0  0  0  0  0  0
   -5.6001    1.7723   -5.0244 H   0  0  0  0  0  0  0  0  0  0  0  0
   -4.8130    3.2997   -5.3357 H   0  0  0  0  0  0  0  0  0  0  0  0
   -4.5056    3.5333   -2.9547 H   0  0  0  0  0  0  0  0  0  0  0  0
   -6.5387    1.5543   -2.4148 H   0  0  0  0  0  0  0  0  0  0  0  0
   -5.3185    2.2376   -1.3618 H   0  0  0  0  0  0  0  0  0  0  0  0
   -4.4527    0.0944   -1.6701 H   0  0  0  0  0  0  0  0  0  0  0  0
   -5.1369   -0.0631   -3.2852 H   0  0  0  0  0  0  0  0  0  0  0  0
  1  2  1  0
  2  3  1  0
  3  4  2  0
  4  5  1  0
  5  6  2  0
  6  7  1  0
  7  8  2  0
  8  9  1  0
  7 10  1  0
  4 11  1  0
  2 12  1  0
 12 13  1  0
 13 14  2  0
 14 15  1  0
 15 16  2  0
 16 17  1  0
 17 18  2  0
 18 19  1  0
 15 20  1  0
 20 21  1  0
 21 22  2  0
 22 23  1  0
 23 24  1  0
 23 25  1  0
 25 26  1  0
 26 27  1  0
 27 28  1  0
 28 29  1  0
 29 30  1  0
  8  3  1  0
 18 13  1  0
 24 20  2  0
 30 25  1  0
  1 31  1  0
  1 32  1  0
  1 33  1  0
  2 34  1  1
  5 35  1  0
  6 36  1  0
 14 37  1  0
 16 38  1  0
 19 39  1  0
 19 40  1  0
 21 41  1  0
 24 42  1  0
 25 43  1  0
 26 44  1  0
 26 45  1  0
 27 46  1  0
 27 47  1  0
 28 48  1  0
 29 49  1  0
 29 50  1  0
 30 51  1  0
 30 52  1  0
M  END
>  <energy_abs>  (39) 
42.848605726406674

>  <SMILES>  (39) 
C[C@H](c1c(ccc(c1Cl)F)Cl)Oc2cc(cnc2N)c3cnn(c3)C4CCNCC4

>  <cluster_no>  (39) 
39

>  <fda_drugs_id>  (39) 
KTEIFNKAUNYNJU-GFCCVEGCSA-N

>  <initial_conformation_id>  (39) 
277

>  <minimize_method>  (39) 
MMFF

$$$$

     RDKit          3D

 52 55  0  0  0  0  0  0  0  0999 V2000
    5.6956   -0.5040   -0.1319 C   0  0  0  0  0  0  0  0  0  0  0  0
    4.3613   -0.2904    0.5898 C   0  0  2  0  0  0  0  0  0  0  0  0
    3.5394   -1.5778    0.6531 C   0  0  0  0  0  0  0  0  0  0  0  0
    3.3928   -2.2689    1.8804 C   0  0  0  0  0  0  0  0  0  0  0  0
    2.6170   -3.4339    1.9779 C   0  0  0  0  0  0  0  0  0  0  0  0
    1.9732   -3.9457    0.8572 C   0  0  0  0  0  0  0  0  0  0  0  0
    2.1177   -3.2961   -0.3599 C   0  0  0  0  0  0  0  0  0  0  0  0
    2.8921   -2.1313   -0.4773 C   0  0  0  0  0  0  0  0  0  0  0  0
    3.0062   -1.4364   -2.0618 Cl  0  0  0  0  0  0  0  0  0  0  0  0
    1.4909   -3.8147   -1.4305 F   0  0  0  0  0  0  0  0  0  0  0  0
    4.1614   -1.7564    3.3509 Cl  0  0  0  0  0  0  0  0  0  0  0  0
    3.6686    0.7954   -0.0661 O   0  0  0  0  0  0  0  0  0  0  0  0
    2.6347    1.3105    0.6753 C   0  0  0  0  0  0  0  0  0  0  0  0
    1.3544    1.2014    0.1322 C   0  0  0  0  0  0  0  0  0  0  0  0
    0.2546    1.7024    0.8303 C   0  0  0  0  0  0  0  0  0  0  0  0
    0.5164    2.3115    2.0536 C   0  0  0  0  0  0  0  0  0  0  0  0
    1.7552    2.4728    2.5880 N   0  0  0  0  0  0  0  0  0  0  0  0
    2.7957    1.9968    1.8821 C   0  0  0  0  0  0  0  0  0  0  0  0
    4.0496    2.2448    2.4333 N   0  0  0  0  0  0  0  0  0  0  0  0
   -1.0976    1.6040    0.3121 C   0  0  0  0  0  0  0  0  0  0  0  0
   -2.3485    1.6061    0.9715 C   0  0  0  0  0  0  0  0  0  0  0  0
   -3.3789    1.5283    0.1214 N   0  0  0  0  0  0  0  0  0  0  0  0
   -2.7945    1.4706   -1.0930 N   0  0  0  0  0  0  0  0  0  0  0  0
   -1.4291    1.5110   -1.0245 C   0  0  0  0  0  0  0  0  0  0  0  0
   -3.6451    1.3431   -2.2725 C   0  0  0  0  0  0  0  0  0  0  0  0
   -3.1452    2.1215   -3.5034 C   0  0  0  0  0  0  0  0  0  0  0  0
   -2.6751    1.2038   -4.6343 C   0  0  0  0  0  0  0  0  0  0  0  0
   -1.9015    0.0873   -4.1155 N   0  0  0  0  0  0  0  0  0  0  0  0
   -2.6762   -0.7943   -3.2417 C   0  0  0  0  0  0  0  0  0  0  0  0
   -3.9001   -0.1289   -2.6079 C   0  0  0  0  0  0  0  0  0  0  0  0
    6.2977    0.4050   -0.0795 H   0  0  0  0  0  0  0  0  0  0  0  0
    5.5699   -0.7144   -1.1990 H   0  0  0  0  0  0  0  0  0  0  0  0
    6.2678   -1.3229    0.3178 H   0  0  0  0  0  0  0  0  0  0  0  0
    4.6452    0.0362    1.5893 H   0  0  0  0  0  0  0  0  0  0  0  0
    2.5102   -3.9464    2.9337 H   0  0  0  0  0  0  0  0  0  0  0  0
    1.3670   -4.8436    0.9258 H   0  0  0  0  0  0  0  0  0  0  0  0
    1.2274    0.7124   -0.8286 H   0  0  0  0  0  0  0  0  0  0  0  0
   -0.2822    2.7295    2.6613 H   0  0  0  0  0  0  0  0  0  0  0  0
    3.8952    2.8113    3.2642 H   0  0  0  0  0  0  0  0  0  0  0  0
    4.6425    2.7137    1.7581 H   0  0  0  0  0  0  0  0  0  0  0  0
   -2.5564    1.6593    2.0366 H   0  0  0  0  0  0  0  0  0  0  0  0
   -0.8223    1.4741   -1.9198 H   0  0  0  0  0  0  0  0  0  0  0  0
   -4.6007    1.7967   -1.9730 H   0  0  0  0  0  0  0  0  0  0  0  0
   -3.9680    2.7350   -3.8977 H   0  0  0  0  0  0  0  0  0  0  0  0
   -2.3549    2.8291   -3.2373 H   0  0  0  0  0  0  0  0  0  0  0  0
   -3.5288    0.8405   -5.2159 H   0  0  0  0  0  0  0  0  0  0  0  0
   -2.0571    1.7836   -5.3252 H   0  0  0  0  0  0  0  0  0  0  0  0
   -1.4940   -0.4575   -4.8783 H   0  0  0  0  0  0  0  0  0  0  0  0
   -3.0102   -1.6751   -3.8049 H   0  0  0  0  0  0  0  0  0  0  0  0
   -2.0083   -1.1680   -2.4589 H   0  0  0  0  0  0  0  0  0  0  0  0
   -4.7377   -0.1820   -3.3140 H   0  0  0  0  0  0  0  0  0  0  0  0
   -4.2072   -0.6941   -1.7188 H   0  0  0  0  0  0  0  0  0  0  0  0
  1  2  1  0
  2  3  1  0
  3  4  2  0
  4  5  1  0
  5  6  2  0
  6  7  1  0
  7  8  2  0
  8  9  1  0
  7 10  1  0
  4 11  1  0
  2 12  1  0
 12 13  1  0
 13 14  2  0
 14 15  1  0
 15 16  2  0
 16 17  1  0
 17 18  2  0
 18 19  1  0
 15 20  1  0
 20 21  1  0
 21 22  2  0
 22 23  1  0
 23 24  1  0
 23 25  1  0
 25 26  1  0
 26 27  1  0
 27 28  1  0
 28 29  1  0
 29 30  1  0
  8  3  1  0
 18 13  1  0
 24 20  2  0
 30 25  1  0
  1 31  1  0
  1 32  1  0
  1 33  1  0
  2 34  1  1
  5 35  1  0
  6 36  1  0
 14 37  1  0
 16 38  1  0
 19 39  1  0
 19 40  1  0
 21 41  1  0
 24 42  1  0
 25 43  1  0
 26 44  1  0
 26 45  1  0
 27 46  1  0
 27 47  1  0
 28 48  1  0
 29 49  1  0
 29 50  1  0
 30 51  1  0
 30 52  1  0
M  END
>  <energy_abs>  (40) 
27.85829023695555

>  <SMILES>  (40) 
C[C@H](c1c(ccc(c1Cl)F)Cl)Oc2cc(cnc2N)c3cnn(c3)C4CCNCC4

>  <cluster_no>  (40) 
40

>  <fda_drugs_id>  (40) 
KTEIFNKAUNYNJU-GFCCVEGCSA-N

>  <initial_conformation_id>  (40) 
276

>  <minimize_method>  (40) 
MMFF

$$$$

     RDKit          3D

 52 55  0  0  0  0  0  0  0  0999 V2000
    1.5460   -2.6793   -0.0450 C   0  0  0  0  0  0  0  0  0  0  0  0
    2.5530   -1.5889    0.3234 C   0  0  2  0  0  0  0  0  0  0  0  0
    3.9580   -2.1781    0.4530 C   0  0  0  0  0  0  0  0  0  0  0  0
    4.8814   -2.0557   -0.6127 C   0  0  0  0  0  0  0  0  0  0  0  0
    6.1819   -2.5736   -0.5236 C   0  0  0  0  0  0  0  0  0  0  0  0
    6.5927   -3.2414    0.6220 C   0  0  0  0  0  0  0  0  0  0  0  0
    5.6994   -3.3954    1.6704 C   0  0  0  0  0  0  0  0  0  0  0  0
    4.3936   -2.8857    1.5980 C   0  0  0  0  0  0  0  0  0  0  0  0
    3.3673   -3.2040    2.9596 Cl  0  0  0  0  0  0  0  0  0  0  0  0
    6.1163   -4.0579    2.7608 F   0  0  0  0  0  0  0  0  0  0  0  0
    4.4757   -1.2895   -2.1136 Cl  0  0  0  0  0  0  0  0  0  0  0  0
    2.1835   -0.9639    1.5570 O   0  0  0  0  0  0  0  0  0  0  0  0
    1.4150    0.1702    1.5530 C   0  0  0  0  0  0  0  0  0  0  0  0
    0.6610    0.6437    0.4798 C   0  0  0  0  0  0  0  0  0  0  0  0
   -0.0751    1.8251    0.6246 C   0  0  0  0  0  0  0  0  0  0  0  0
   -0.0189    2.4814    1.8506 C   0  0  0  0  0  0  0  0  0  0  0  0
    0.6856    2.0371    2.9157 N   0  0  0  0  0  0  0  0  0  0  0  0
    1.3788    0.8929    2.7633 C   0  0  0  0  0  0  0  0  0  0  0  0
    2.1054    0.4304    3.8773 N   0  0  0  0  0  0  0  0  0  0  0  0
   -0.8641    2.3555   -0.4633 C   0  0  0  0  0  0  0  0  0  0  0  0
   -0.9613    3.6648   -0.9831 C   0  0  0  0  0  0  0  0  0  0  0  0
   -1.8461    3.7519   -1.9805 N   0  0  0  0  0  0  0  0  0  0  0  0
   -2.3309    2.4988   -2.0961 N   0  0  0  0  0  0  0  0  0  0  0  0
   -1.7696    1.6257   -1.2029 C   0  0  0  0  0  0  0  0  0  0  0  0
   -3.3909    2.2291   -3.0618 C   0  0  0  0  0  0  0  0  0  0  0  0
   -3.2046    0.9040   -3.8075 C   0  0  0  0  0  0  0  0  0  0  0  0
   -4.3000    0.7148   -4.8588 C   0  0  0  0  0  0  0  0  0  0  0  0
   -5.5765    1.3355   -4.5052 N   0  0  0  0  0  0  0  0  0  0  0  0
   -5.7936    1.3791   -3.0660 C   0  0  0  0  0  0  0  0  0  0  0  0
   -4.7782    2.3061   -2.3999 C   0  0  0  0  0  0  0  0  0  0  0  0
    0.5425   -2.2607   -0.1653 H   0  0  0  0  0  0  0  0  0  0  0  0
    1.4639   -3.4405    0.7371 H   0  0  0  0  0  0  0  0  0  0  0  0
    1.8221   -3.1779   -0.9807 H   0  0  0  0  0  0  0  0  0  0  0  0
    2.5683   -0.8253   -0.4568 H   0  0  0  0  0  0  0  0  0  0  0  0
    6.8788   -2.4633   -1.3522 H   0  0  0  0  0  0  0  0  0  0  0  0
    7.5953   -3.6499    0.7020 H   0  0  0  0  0  0  0  0  0  0  0  0
    0.6314    0.1229   -0.4731 H   0  0  0  0  0  0  0  0  0  0  0  0
   -0.5640    3.4049    2.0309 H   0  0  0  0  0  0  0  0  0  0  0  0
    1.8206   -0.5312    4.0468 H   0  0  0  0  0  0  0  0  0  0  0  0
    3.0836    0.3756    3.6075 H   0  0  0  0  0  0  0  0  0  0  0  0
   -0.4236    4.5567   -0.6845 H   0  0  0  0  0  0  0  0  0  0  0  0
   -2.0774    0.5902   -1.1468 H   0  0  0  0  0  0  0  0  0  0  0  0
   -3.3198    3.0346   -3.8075 H   0  0  0  0  0  0  0  0  0  0  0  0
   -2.2190    0.8618   -4.2865 H   0  0  0  0  0  0  0  0  0  0  0  0
   -3.2437    0.0653   -3.1015 H   0  0  0  0  0  0  0  0  0  0  0  0
   -4.4457   -0.3567   -5.0262 H   0  0  0  0  0  0  0  0  0  0  0  0
   -3.9690    1.1371   -5.8094 H   0  0  0  0  0  0  0  0  0  0  0  0
   -6.3398    0.8362   -4.9644 H   0  0  0  0  0  0  0  0  0  0  0  0
   -6.8039    1.7482   -2.8563 H   0  0  0  0  0  0  0  0  0  0  0  0
   -5.7341    0.3687   -2.6414 H   0  0  0  0  0  0  0  0  0  0  0  0
   -5.1329    3.3445   -2.4510 H   0  0  0  0  0  0  0  0  0  0  0  0
   -4.7278    2.0546   -1.3331 H   0  0  0  0  0  0  0  0  0  0  0  0
  1  2  1  0
  2  3  1  0
  3  4  2  0
  4  5  1  0
  5  6  2  0
  6  7  1  0
  7  8  2  0
  8  9  1  0
  7 10  1  0
  4 11  1  0
  2 12  1  0
 12 13  1  0
 13 14  2  0
 14 15  1  0
 15 16  2  0
 16 17  1  0
 17 18  2  0
 18 19  1  0
 15 20  1  0
 20 21  1  0
 21 22  2  0
 22 23  1  0
 23 24  1  0
 23 25  1  0
 25 26  1  0
 26 27  1  0
 27 28  1  0
 28 29  1  0
 29 30  1  0
  8  3  1  0
 18 13  1  0
 24 20  2  0
 30 25  1  0
  1 31  1  0
  1 32  1  0
  1 33  1  0
  2 34  1  6
  5 35  1  0
  6 36  1  0
 14 37  1  0
 16 38  1  0
 19 39  1  0
 19 40  1  0
 21 41  1  0
 24 42  1  0
 25 43  1  0
 26 44  1  0
 26 45  1  0
 27 46  1  0
 27 47  1  0
 28 48  1  0
 29 49  1  0
 29 50  1  0
 30 51  1  0
 30 52  1  0
M  END
>  <energy_abs>  (41) 
40.53281517186811

>  <SMILES>  (41) 
C[C@H](c1c(ccc(c1Cl)F)Cl)Oc2cc(cnc2N)c3cnn(c3)C4CCNCC4

>  <cluster_no>  (41) 
41

>  <fda_drugs_id>  (41) 
KTEIFNKAUNYNJU-GFCCVEGCSA-N

>  <initial_conformation_id>  (41) 
275

>  <minimize_method>  (41) 
MMFF

$$$$

     RDKit          3D

 52 55  0  0  0  0  0  0  0  0999 V2000
    3.3301   -1.9747   -1.1237 C   0  0  0  0  0  0  0  0  0  0  0  0
    3.6000   -1.2370    0.1930 C   0  0  2  0  0  0  0  0  0  0  0  0
    4.6654   -1.9428    1.0311 C   0  0  0  0  0  0  0  0  0  0  0  0
    5.9631   -1.3927    1.1556 C   0  0  0  0  0  0  0  0  0  0  0  0
    6.9562   -2.0153    1.9282 C   0  0  0  0  0  0  0  0  0  0  0  0
    6.6822   -3.2005    2.5994 C   0  0  0  0  0  0  0  0  0  0  0  0
    5.4226   -3.7699    2.4757 C   0  0  0  0  0  0  0  0  0  0  0  0
    4.4193   -3.1626    1.7061 C   0  0  0  0  0  0  0  0  0  0  0  0
    2.9010   -3.9977    1.6161 Cl  0  0  0  0  0  0  0  0  0  0  0  0
    5.1906   -4.9324    3.1049 F   0  0  0  0  0  0  0  0  0  0  0  0
    6.4382    0.0677    0.3498 Cl  0  0  0  0  0  0  0  0  0  0  0  0
    2.4045   -1.1130    0.9881 O   0  0  0  0  0  0  0  0  0  0  0  0
    1.6628   -0.0077    0.6620 C   0  0  0  0  0  0  0  0  0  0  0  0
    0.5443   -0.1842   -0.1541 C   0  0  0  0  0  0  0  0  0  0  0  0
   -0.2601    0.9114   -0.4730 C   0  0  0  0  0  0  0  0  0  0  0  0
    0.1222    2.1379    0.0679 C   0  0  0  0  0  0  0  0  0  0  0  0
    1.1867    2.3277    0.8922 N   0  0  0  0  0  0  0  0  0  0  0  0
    1.9293    1.2532    1.2043 C   0  0  0  0  0  0  0  0  0  0  0  0
    2.9779    1.4410    2.1171 N   0  0  0  0  0  0  0  0  0  0  0  0
   -1.4319    0.7578   -1.3195 C   0  0  0  0  0  0  0  0  0  0  0  0
   -1.8454   -0.3218   -2.1384 C   0  0  0  0  0  0  0  0  0  0  0  0
   -3.0100   -0.0982   -2.7522 N   0  0  0  0  0  0  0  0  0  0  0  0
   -3.3666    1.1271   -2.3212 N   0  0  0  0  0  0  0  0  0  0  0  0
   -2.4427    1.6849   -1.4770 C   0  0  0  0  0  0  0  0  0  0  0  0
   -4.6136    1.7137   -2.8071 C   0  0  0  0  0  0  0  0  0  0  0  0
   -4.3638    2.8137   -3.8508 C   0  0  0  0  0  0  0  0  0  0  0  0
   -4.3491    4.2044   -3.2270 C   0  0  0  0  0  0  0  0  0  0  0  0
   -5.5171    4.5103   -2.4020 N   0  0  0  0  0  0  0  0  0  0  0  0
   -6.3712    3.3676   -2.0895 C   0  0  0  0  0  0  0  0  0  0  0  0
   -5.5399    2.1648   -1.6672 C   0  0  0  0  0  0  0  0  0  0  0  0
    2.7774   -2.9083   -0.9799 H   0  0  0  0  0  0  0  0  0  0  0  0
    4.2623   -2.1954   -1.6552 H   0  0  0  0  0  0  0  0  0  0  0  0
    2.7111   -1.3527   -1.7838 H   0  0  0  0  0  0  0  0  0  0  0  0
    3.9432   -0.2339   -0.0749 H   0  0  0  0  0  0  0  0  0  0  0  0
    7.9497   -1.5778    2.0011 H   0  0  0  0  0  0  0  0  0  0  0  0
    7.4415   -3.6946    3.1987 H   0  0  0  0  0  0  0  0  0  0  0  0
    0.3091   -1.1823   -0.5139 H   0  0  0  0  0  0  0  0  0  0  0  0
   -0.4287    3.0516   -0.1394 H   0  0  0  0  0  0  0  0  0  0  0  0
    2.8522    0.7836    2.8833 H   0  0  0  0  0  0  0  0  0  0  0  0
    3.8660    1.2275    1.6767 H   0  0  0  0  0  0  0  0  0  0  0  0
   -1.3473   -1.2656   -2.3175 H   0  0  0  0  0  0  0  0  0  0  0  0
   -2.6031    2.6626   -1.0465 H   0  0  0  0  0  0  0  0  0  0  0  0
   -5.1255    0.8940   -3.3333 H   0  0  0  0  0  0  0  0  0  0  0  0
   -5.1705    2.7785   -4.5981 H   0  0  0  0  0  0  0  0  0  0  0  0
   -3.4299    2.6405   -4.4020 H   0  0  0  0  0  0  0  0  0  0  0  0
   -3.4530    4.3244   -2.6091 H   0  0  0  0  0  0  0  0  0  0  0  0
   -4.2689    4.9540   -4.0231 H   0  0  0  0  0  0  0  0  0  0  0  0
   -6.0738    5.2513   -2.8327 H   0  0  0  0  0  0  0  0  0  0  0  0
   -7.0512    3.6467   -1.2770 H   0  0  0  0  0  0  0  0  0  0  0  0
   -6.9973    3.1151   -2.9547 H   0  0  0  0  0  0  0  0  0  0  0  0
   -4.9785    2.4214   -0.7614 H   0  0  0  0  0  0  0  0  0  0  0  0
   -6.1994    1.3363   -1.3843 H   0  0  0  0  0  0  0  0  0  0  0  0
  1  2  1  0
  2  3  1  0
  3  4  2  0
  4  5  1  0
  5  6  2  0
  6  7  1  0
  7  8  2  0
  8  9  1  0
  7 10  1  0
  4 11  1  0
  2 12  1  0
 12 13  1  0
 13 14  2  0
 14 15  1  0
 15 16  2  0
 16 17  1  0
 17 18  2  0
 18 19  1  0
 15 20  1  0
 20 21  1  0
 21 22  2  0
 22 23  1  0
 23 24  1  0
 23 25  1  0
 25 26  1  0
 26 27  1  0
 27 28  1  0
 28 29  1  0
 29 30  1  0
  8  3  1  0
 18 13  1  0
 24 20  2  0
 30 25  1  0
  1 31  1  0
  1 32  1  0
  1 33  1  0
  2 34  1  6
  5 35  1  0
  6 36  1  0
 14 37  1  0
 16 38  1  0
 19 39  1  0
 19 40  1  0
 21 41  1  0
 24 42  1  0
 25 43  1  0
 26 44  1  0
 26 45  1  0
 27 46  1  0
 27 47  1  0
 28 48  1  0
 29 49  1  0
 29 50  1  0
 30 51  1  0
 30 52  1  0
M  END
>  <energy_abs>  (42) 
41.199328771042325

>  <SMILES>  (42) 
C[C@H](c1c(ccc(c1Cl)F)Cl)Oc2cc(cnc2N)c3cnn(c3)C4CCNCC4

>  <cluster_no>  (42) 
42

>  <fda_drugs_id>  (42) 
KTEIFNKAUNYNJU-GFCCVEGCSA-N

>  <initial_conformation_id>  (42) 
274

>  <minimize_method>  (42) 
MMFF

$$$$

     RDKit          3D

 52 55  0  0  0  0  0  0  0  0999 V2000
    2.0374   -3.0873    1.0982 C   0  0  0  0  0  0  0  0  0  0  0  0
    2.8412   -1.8468    0.6804 C   0  0  2  0  0  0  0  0  0  0  0  0
    4.3390   -2.1526    0.6141 C   0  0  0  0  0  0  0  0  0  0  0  0
    4.9889   -2.2983   -0.6366 C   0  0  0  0  0  0  0  0  0  0  0  0
    6.3626   -2.5732   -0.7226 C   0  0  0  0  0  0  0  0  0  0  0  0
    7.1217   -2.7253    0.4338 C   0  0  0  0  0  0  0  0  0  0  0  0
    6.5038   -2.6031    1.6709 C   0  0  0  0  0  0  0  0  0  0  0  0
    5.1337   -2.3234    1.7760 C   0  0  0  0  0  0  0  0  0  0  0  0
    4.4943   -2.2183    3.3863 Cl  0  0  0  0  0  0  0  0  0  0  0  0
    7.2540   -2.7748    2.7744 F   0  0  0  0  0  0  0  0  0  0  0  0
    4.1540   -2.1662   -2.1531 Cl  0  0  0  0  0  0  0  0  0  0  0  0
    2.6451   -0.7346    1.5684 O   0  0  0  0  0  0  0  0  0  0  0  0
    1.3954   -0.1707    1.5913 C   0  0  0  0  0  0  0  0  0  0  0  0
    0.6865    0.1874    0.4438 C   0  0  0  0  0  0  0  0  0  0  0  0
   -0.5566    0.8141    0.5679 C   0  0  0  0  0  0  0  0  0  0  0  0
   -1.0154    1.0697    1.8575 C   0  0  0  0  0  0  0  0  0  0  0  0
   -0.3420    0.7541    2.9904 N   0  0  0  0  0  0  0  0  0  0  0  0
    0.8500    0.1478    2.8431 C   0  0  0  0  0  0  0  0  0  0  0  0
    1.4881   -0.2325    4.0229 N   0  0  0  0  0  0  0  0  0  0  0  0
   -1.3339    1.1651   -0.6035 C   0  0  0  0  0  0  0  0  0  0  0  0
   -1.4411    0.5289   -1.8621 C   0  0  0  0  0  0  0  0  0  0  0  0
   -2.2747    1.1610   -2.6903 N   0  0  0  0  0  0  0  0  0  0  0  0
   -2.7070    2.2127   -1.9689 N   0  0  0  0  0  0  0  0  0  0  0  0
   -2.1658    2.2611   -0.7107 C   0  0  0  0  0  0  0  0  0  0  0  0
   -3.6617    3.1621   -2.5380 C   0  0  0  0  0  0  0  0  0  0  0  0
   -5.0769    2.5658   -2.5723 C   0  0  0  0  0  0  0  0  0  0  0  0
   -5.9219    3.2510   -3.6376 C   0  0  0  0  0  0  0  0  0  0  0  0
   -5.3780    3.0864   -4.9841 N   0  0  0  0  0  0  0  0  0  0  0  0
   -3.9203    2.9713   -5.0437 C   0  0  0  0  0  0  0  0  0  0  0  0
   -3.2155    3.7013   -3.9071 C   0  0  0  0  0  0  0  0  0  0  0  0
    0.9597   -2.8952    1.0244 H   0  0  0  0  0  0  0  0  0  0  0  0
    2.2691   -3.9429    0.4526 H   0  0  0  0  0  0  0  0  0  0  0  0
    2.2260   -3.3810    2.1377 H   0  0  0  0  0  0  0  0  0  0  0  0
    2.4971   -1.5508   -0.3141 H   0  0  0  0  0  0  0  0  0  0  0  0
    6.8426   -2.6860   -1.6937 H   0  0  0  0  0  0  0  0  0  0  0  0
    8.1845   -2.9417    0.3824 H   0  0  0  0  0  0  0  0  0  0  0  0
    1.1042    0.0170   -0.5430 H   0  0  0  0  0  0  0  0  0  0  0  0
   -1.9789    1.5403    2.0334 H   0  0  0  0  0  0  0  0  0  0  0  0
    2.4790   -0.0211    3.9929 H   0  0  0  0  0  0  0  0  0  0  0  0
    0.9973    0.1890    4.8037 H   0  0  0  0  0  0  0  0  0  0  0  0
   -0.9539   -0.3742   -2.2080 H   0  0  0  0  0  0  0  0  0  0  0  0
   -2.4152    3.0562   -0.0215 H   0  0  0  0  0  0  0  0  0  0  0  0
   -3.6634    4.0177   -1.8465 H   0  0  0  0  0  0  0  0  0  0  0  0
   -5.5488    2.6828   -1.5885 H   0  0  0  0  0  0  0  0  0  0  0  0
   -5.0503    1.4856   -2.7695 H   0  0  0  0  0  0  0  0  0  0  0  0
   -6.0027    4.3209   -3.4061 H   0  0  0  0  0  0  0  0  0  0  0  0
   -6.9394    2.8458   -3.6194 H   0  0  0  0  0  0  0  0  0  0  0  0
   -5.6972    3.8486   -5.5832 H   0  0  0  0  0  0  0  0  0  0  0  0
   -3.5741    3.3726   -6.0031 H   0  0  0  0  0  0  0  0  0  0  0  0
   -3.6479    1.9102   -5.0400 H   0  0  0  0  0  0  0  0  0  0  0  0
   -2.1277    3.6378   -4.0318 H   0  0  0  0  0  0  0  0  0  0  0  0
   -3.4684    4.7695   -3.9691 H   0  0  0  0  0  0  0  0  0  0  0  0
  1  2  1  0
  2  3  1  0
  3  4  2  0
  4  5  1  0
  5  6  2  0
  6  7  1  0
  7  8  2  0
  8  9  1  0
  7 10  1  0
  4 11  1  0
  2 12  1  0
 12 13  1  0
 13 14  2  0
 14 15  1  0
 15 16  2  0
 16 17  1  0
 17 18  2  0
 18 19  1  0
 15 20  1  0
 20 21  1  0
 21 22  2  0
 22 23  1  0
 23 24  1  0
 23 25  1  0
 25 26  1  0
 26 27  1  0
 27 28  1  0
 28 29  1  0
 29 30  1  0
  8  3  1  0
 18 13  1  0
 24 20  2  0
 30 25  1  0
  1 31  1  0
  1 32  1  0
  1 33  1  0
  2 34  1  6
  5 35  1  0
  6 36  1  0
 14 37  1  0
 16 38  1  0
 19 39  1  0
 19 40  1  0
 21 41  1  0
 24 42  1  0
 25 43  1  0
 26 44  1  0
 26 45  1  0
 27 46  1  0
 27 47  1  0
 28 48  1  0
 29 49  1  0
 29 50  1  0
 30 51  1  0
 30 52  1  0
M  END
>  <energy_abs>  (43) 
31.57665880385771

>  <SMILES>  (43) 
C[C@H](c1c(ccc(c1Cl)F)Cl)Oc2cc(cnc2N)c3cnn(c3)C4CCNCC4

>  <cluster_no>  (43) 
43

>  <fda_drugs_id>  (43) 
KTEIFNKAUNYNJU-GFCCVEGCSA-N

>  <initial_conformation_id>  (43) 
273

>  <minimize_method>  (43) 
MMFF

$$$$

     RDKit          3D

 52 55  0  0  0  0  0  0  0  0999 V2000
    3.5198   -1.0696   -1.3449 C   0  0  0  0  0  0  0  0  0  0  0  0
    3.5558   -0.9385    0.1805 C   0  0  2  0  0  0  0  0  0  0  0  0
    4.5678   -1.8899    0.8118 C   0  0  0  0  0  0  0  0  0  0  0  0
    5.7740   -1.3947    1.3608 C   0  0  0  0  0  0  0  0  0  0  0  0
    6.7167   -2.2465    1.9554 C   0  0  0  0  0  0  0  0  0  0  0  0
    6.4854   -3.6145    2.0152 C   0  0  0  0  0  0  0  0  0  0  0  0
    5.3135   -4.1255    1.4778 C   0  0  0  0  0  0  0  0  0  0  0  0
    4.3599   -3.2885    0.8801 C   0  0  0  0  0  0  0  0  0  0  0  0
    2.9497   -4.0668    0.2379 Cl  0  0  0  0  0  0  0  0  0  0  0  0
    5.1181   -5.4517    1.5392 F   0  0  0  0  0  0  0  0  0  0  0  0
    6.1849    0.2886    1.3480 Cl  0  0  0  0  0  0  0  0  0  0  0  0
    2.2543   -1.2005    0.7305 O   0  0  0  0  0  0  0  0  0  0  0  0
    1.5548   -0.0642    1.0370 C   0  0  0  0  0  0  0  0  0  0  0  0
    0.4673    0.2527    0.2222 C   0  0  0  0  0  0  0  0  0  0  0  0
   -0.3189    1.3666    0.5179 C   0  0  0  0  0  0  0  0  0  0  0  0
    0.0352    2.0977    1.6493 C   0  0  0  0  0  0  0  0  0  0  0  0
    1.0732    1.7992    2.4724 N   0  0  0  0  0  0  0  0  0  0  0  0
    1.8133    0.7191    2.1667 C   0  0  0  0  0  0  0  0  0  0  0  0
    2.8157    0.4134    3.0836 N   0  0  0  0  0  0  0  0  0  0  0  0
   -1.4595    1.7477   -0.2945 C   0  0  0  0  0  0  0  0  0  0  0  0
   -2.6033    2.5177    0.0217 C   0  0  0  0  0  0  0  0  0  0  0  0
   -3.4328    2.6631   -1.0136 N   0  0  0  0  0  0  0  0  0  0  0  0
   -2.8324    1.9770   -2.0032 N   0  0  0  0  0  0  0  0  0  0  0  0
   -1.6435    1.4165   -1.6219 C   0  0  0  0  0  0  0  0  0  0  0  0
   -3.4481    1.8889   -3.3248 C   0  0  0  0  0  0  0  0  0  0  0  0
   -4.6135    0.8893   -3.3214 C   0  0  0  0  0  0  0  0  0  0  0  0
   -5.5609    1.1730   -4.4801 C   0  0  0  0  0  0  0  0  0  0  0  0
   -6.1630    2.5027   -4.4071 N   0  0  0  0  0  0  0  0  0  0  0  0
   -5.3474    3.5062   -3.7224 C   0  0  0  0  0  0  0  0  0  0  0  0
   -3.8514    3.2639   -3.8852 C   0  0  0  0  0  0  0  0  0  0  0  0
    3.1336   -2.0375   -1.6762 H   0  0  0  0  0  0  0  0  0  0  0  0
    2.8508   -0.3144   -1.7732 H   0  0  0  0  0  0  0  0  0  0  0  0
    4.5157   -0.9294   -1.7789 H   0  0  0  0  0  0  0  0  0  0  0  0
    3.8314    0.1003    0.3838 H   0  0  0  0  0  0  0  0  0  0  0  0
    7.6361   -1.8441    2.3764 H   0  0  0  0  0  0  0  0  0  0  0  0
    7.2060   -4.2849    2.4736 H   0  0  0  0  0  0  0  0  0  0  0  0
    0.2378   -0.3916   -0.6210 H   0  0  0  0  0  0  0  0  0  0  0  0
   -0.5187    2.9835    1.9498 H   0  0  0  0  0  0  0  0  0  0  0  0
    2.8028    1.1476    3.7872 H   0  0  0  0  0  0  0  0  0  0  0  0
    3.7243    0.3255    2.6509 H   0  0  0  0  0  0  0  0  0  0  0  0
   -2.8720    2.9773    0.9645 H   0  0  0  0  0  0  0  0  0  0  0  0
   -1.0455    0.8470   -2.3193 H   0  0  0  0  0  0  0  0  0  0  0  0
   -2.6601    1.4979   -3.9836 H   0  0  0  0  0  0  0  0  0  0  0  0
   -4.2214   -0.1326   -3.3980 H   0  0  0  0  0  0  0  0  0  0  0  0
   -5.1726    0.9307   -2.3764 H   0  0  0  0  0  0  0  0  0  0  0  0
   -6.3611    0.4257   -4.4965 H   0  0  0  0  0  0  0  0  0  0  0  0
   -5.0155    1.0741   -5.4268 H   0  0  0  0  0  0  0  0  0  0  0  0
   -6.4166    2.8215   -5.3417 H   0  0  0  0  0  0  0  0  0  0  0  0
   -5.6061    4.4975   -4.1109 H   0  0  0  0  0  0  0  0  0  0  0  0
   -5.6159    3.5149   -2.6596 H   0  0  0  0  0  0  0  0  0  0  0  0
   -3.6060    3.2988   -4.9556 H   0  0  0  0  0  0  0  0  0  0  0  0
   -3.2833    4.0762   -3.4163 H   0  0  0  0  0  0  0  0  0  0  0  0
  1  2  1  0
  2  3  1  0
  3  4  2  0
  4  5  1  0
  5  6  2  0
  6  7  1  0
  7  8  2  0
  8  9  1  0
  7 10  1  0
  4 11  1  0
  2 12  1  0
 12 13  1  0
 13 14  2  0
 14 15  1  0
 15 16  2  0
 16 17  1  0
 17 18  2  0
 18 19  1  0
 15 20  1  0
 20 21  1  0
 21 22  2  0
 22 23  1  0
 23 24  1  0
 23 25  1  0
 25 26  1  0
 26 27  1  0
 27 28  1  0
 28 29  1  0
 29 30  1  0
  8  3  1  0
 18 13  1  0
 24 20  2  0
 30 25  1  0
  1 31  1  0
  1 32  1  0
  1 33  1  0
  2 34  1  6
  5 35  1  0
  6 36  1  0
 14 37  1  0
 16 38  1  0
 19 39  1  0
 19 40  1  0
 21 41  1  0
 24 42  1  0
 25 43  1  0
 26 44  1  0
 26 45  1  0
 27 46  1  0
 27 47  1  0
 28 48  1  0
 29 49  1  0
 29 50  1  0
 30 51  1  0
 30 52  1  0
M  END
>  <energy_abs>  (44) 
31.89257397827408

>  <SMILES>  (44) 
C[C@H](c1c(ccc(c1Cl)F)Cl)Oc2cc(cnc2N)c3cnn(c3)C4CCNCC4

>  <cluster_no>  (44) 
44

>  <fda_drugs_id>  (44) 
KTEIFNKAUNYNJU-GFCCVEGCSA-N

>  <initial_conformation_id>  (44) 
272

>  <minimize_method>  (44) 
MMFF

$$$$

     RDKit          3D

 52 55  0  0  0  0  0  0  0  0999 V2000
    3.2903   -3.0099   -1.1028 C   0  0  0  0  0  0  0  0  0  0  0  0
    3.2844   -1.9041   -0.0444 C   0  0  2  0  0  0  0  0  0  0  0  0
    4.5230   -1.9924    0.8409 C   0  0  0  0  0  0  0  0  0  0  0  0
    5.6177   -1.1234    0.6186 C   0  0  0  0  0  0  0  0  0  0  0  0
    6.7634   -1.1632    1.4266 C   0  0  0  0  0  0  0  0  0  0  0  0
    6.8538   -2.0760    2.4690 C   0  0  0  0  0  0  0  0  0  0  0  0
    5.8029   -2.9531    2.6907 C   0  0  0  0  0  0  0  0  0  0  0  0
    4.6505   -2.9285    1.8918 C   0  0  0  0  0  0  0  0  0  0  0  0
    3.4345   -4.1069    2.2586 Cl  0  0  0  0  0  0  0  0  0  0  0  0
    5.9206   -3.8376    3.6936 F   0  0  0  0  0  0  0  0  0  0  0  0
    5.6496    0.0291   -0.6752 Cl  0  0  0  0  0  0  0  0  0  0  0  0
    2.0647   -2.0231    0.7173 O   0  0  0  0  0  0  0  0  0  0  0  0
    1.3548   -0.8517    0.7326 C   0  0  0  0  0  0  0  0  0  0  0  0
    0.2581   -0.7345   -0.1194 C   0  0  0  0  0  0  0  0  0  0  0  0
   -0.4957    0.4398   -0.1120 C   0  0  0  0  0  0  0  0  0  0  0  0
   -0.0966    1.4337    0.7806 C   0  0  0  0  0  0  0  0  0  0  0  0
    0.9541    1.3351    1.6370 N   0  0  0  0  0  0  0  0  0  0  0  0
    1.6528    0.1880    1.6163 C   0  0  0  0  0  0  0  0  0  0  0  0
    2.7148    0.1016    2.5182 N   0  0  0  0  0  0  0  0  0  0  0  0
   -1.6434    0.5970   -0.9867 C   0  0  0  0  0  0  0  0  0  0  0  0
   -2.4418   -0.3681   -1.6435 C   0  0  0  0  0  0  0  0  0  0  0  0
   -3.4160    0.1747   -2.3763 N   0  0  0  0  0  0  0  0  0  0  0  0
   -3.2516    1.4979   -2.1987 N   0  0  0  0  0  0  0  0  0  0  0  0
   -2.1993    1.7992   -1.3750 C   0  0  0  0  0  0  0  0  0  0  0  0
   -4.1646    2.4314   -2.8488 C   0  0  0  0  0  0  0  0  0  0  0  0
   -3.4542    3.2935   -3.9084 C   0  0  0  0  0  0  0  0  0  0  0  0
   -4.0271    4.7081   -3.9848 C   0  0  0  0  0  0  0  0  0  0  0  0
   -5.4755    4.6772   -3.8528 N   0  0  0  0  0  0  0  0  0  0  0  0
   -5.9215    4.2047   -2.5413 C   0  0  0  0  0  0  0  0  0  0  0  0
   -4.9177    3.2942   -1.8328 C   0  0  0  0  0  0  0  0  0  0  0  0
    2.4193   -2.9074   -1.7600 H   0  0  0  0  0  0  0  0  0  0  0  0
    4.1950   -2.9705   -1.7180 H   0  0  0  0  0  0  0  0  0  0  0  0
    3.2225   -4.0070   -0.6572 H   0  0  0  0  0  0  0  0  0  0  0  0
    3.2691   -0.9549   -0.5912 H   0  0  0  0  0  0  0  0  0  0  0  0
    7.5910   -0.4812    1.2421 H   0  0  0  0  0  0  0  0  0  0  0  0
    7.7346   -2.1171    3.1018 H   0  0  0  0  0  0  0  0  0  0  0  0
    0.0166   -1.5590   -0.7830 H   0  0  0  0  0  0  0  0  0  0  0  0
   -0.6328    2.3756    0.8583 H   0  0  0  0  0  0  0  0  0  0  0  0
    2.6392   -0.7556    3.0580 H   0  0  0  0  0  0  0  0  0  0  0  0
    2.6730    0.9319    3.1030 H   0  0  0  0  0  0  0  0  0  0  0  0
   -2.3592   -1.4468   -1.6149 H   0  0  0  0  0  0  0  0  0  0  0  0
   -1.9432    2.8255   -1.1542 H   0  0  0  0  0  0  0  0  0  0  0  0
   -4.9086    1.8090   -3.3681 H   0  0  0  0  0  0  0  0  0  0  0  0
   -3.5593    2.7992   -4.8836 H   0  0  0  0  0  0  0  0  0  0  0  0
   -2.3757    3.3656   -3.7233 H   0  0  0  0  0  0  0  0  0  0  0  0
   -3.5850    5.3494   -3.2124 H   0  0  0  0  0  0  0  0  0  0  0  0
   -3.7564    5.1507   -4.9502 H   0  0  0  0  0  0  0  0  0  0  0  0
   -5.8765    5.5953   -4.0449 H   0  0  0  0  0  0  0  0  0  0  0  0
   -6.1385    5.0615   -1.8929 H   0  0  0  0  0  0  0  0  0  0  0  0
   -6.8669    3.6689   -2.6819 H   0  0  0  0  0  0  0  0  0  0  0  0
   -4.2092    3.9103   -1.2636 H   0  0  0  0  0  0  0  0  0  0  0  0
   -5.4401    2.6670   -1.1005 H   0  0  0  0  0  0  0  0  0  0  0  0
  1  2  1  0
  2  3  1  0
  3  4  2  0
  4  5  1  0
  5  6  2  0
  6  7  1  0
  7  8  2  0
  8  9  1  0
  7 10  1  0
  4 11  1  0
  2 12  1  0
 12 13  1  0
 13 14  2  0
 14 15  1  0
 15 16  2  0
 16 17  1  0
 17 18  2  0
 18 19  1  0
 15 20  1  0
 20 21  1  0
 21 22  2  0
 22 23  1  0
 23 24  1  0
 23 25  1  0
 25 26  1  0
 26 27  1  0
 27 28  1  0
 28 29  1  0
 29 30  1  0
  8  3  1  0
 18 13  1  0
 24 20  2  0
 30 25  1  0
  1 31  1  0
  1 32  1  0
  1 33  1  0
  2 34  1  6
  5 35  1  0
  6 36  1  0
 14 37  1  0
 16 38  1  0
 19 39  1  0
 19 40  1  0
 21 41  1  0
 24 42  1  0
 25 43  1  0
 26 44  1  0
 26 45  1  0
 27 46  1  0
 27 47  1  0
 28 48  1  0
 29 49  1  0
 29 50  1  0
 30 51  1  0
 30 52  1  0
M  END
>  <energy_abs>  (45) 
28.79474957625024

>  <SMILES>  (45) 
C[C@H](c1c(ccc(c1Cl)F)Cl)Oc2cc(cnc2N)c3cnn(c3)C4CCNCC4

>  <cluster_no>  (45) 
45

>  <fda_drugs_id>  (45) 
KTEIFNKAUNYNJU-GFCCVEGCSA-N

>  <initial_conformation_id>  (45) 
271

>  <minimize_method>  (45) 
MMFF

$$$$

     RDKit          3D

 52 55  0  0  0  0  0  0  0  0999 V2000
    2.4446   -2.5051   -0.6986 C   0  0  0  0  0  0  0  0  0  0  0  0
    2.9235   -1.3747    0.2168 C   0  0  2  0  0  0  0  0  0  0  0  0
    4.4217   -1.5120    0.4907 C   0  0  0  0  0  0  0  0  0  0  0  0
    5.3515   -0.7081   -0.2116 C   0  0  0  0  0  0  0  0  0  0  0  0
    6.7311   -0.8089    0.0188 C   0  0  0  0  0  0  0  0  0  0  0  0
    7.2221   -1.7198    0.9453 C   0  0  0  0  0  0  0  0  0  0  0  0
    6.3324   -2.5342    1.6295 C   0  0  0  0  0  0  0  0  0  0  0  0
    4.9498   -2.4489    1.4109 C   0  0  0  0  0  0  0  0  0  0  0  0
    3.9595   -3.5611    2.3001 Cl  0  0  0  0  0  0  0  0  0  0  0  0
    6.8328   -3.4197    2.5049 F   0  0  0  0  0  0  0  0  0  0  0  0
    4.8711    0.4358   -1.4217 Cl  0  0  0  0  0  0  0  0  0  0  0  0
    2.2210   -1.3669    1.4645 O   0  0  0  0  0  0  0  0  0  0  0  0
    0.9305   -0.9143    1.5350 C   0  0  0  0  0  0  0  0  0  0  0  0
    0.2428   -0.2305    0.5319 C   0  0  0  0  0  0  0  0  0  0  0  0
   -1.0805    0.1722    0.7435 C   0  0  0  0  0  0  0  0  0  0  0  0
   -1.6508   -0.1367    1.9737 C   0  0  0  0  0  0  0  0  0  0  0  0
   -1.0110   -0.7904    2.9702 N   0  0  0  0  0  0  0  0  0  0  0  0
    0.2598   -1.1670    2.7465 C   0  0  0  0  0  0  0  0  0  0  0  0
    0.9213   -1.8451    3.7890 N   0  0  0  0  0  0  0  0  0  0  0  0
   -1.8398    0.8724   -0.2741 C   0  0  0  0  0  0  0  0  0  0  0  0
   -3.2247    0.8748   -0.5540 C   0  0  0  0  0  0  0  0  0  0  0  0
   -3.5415    1.6686   -1.5785 N   0  0  0  0  0  0  0  0  0  0  0  0
   -2.3648    2.1931   -1.9597 N   0  0  0  0  0  0  0  0  0  0  0  0
   -1.3124    1.7409   -1.2075 C   0  0  0  0  0  0  0  0  0  0  0  0
   -2.2836    3.1384   -3.0710 C   0  0  0  0  0  0  0  0  0  0  0  0
   -2.5450    2.4703   -4.4273 C   0  0  0  0  0  0  0  0  0  0  0  0
   -4.0316    2.3668   -4.7576 C   0  0  0  0  0  0  0  0  0  0  0  0
   -4.6921    3.6682   -4.6612 N   0  0  0  0  0  0  0  0  0  0  0  0
   -4.6019    4.1861   -3.2955 C   0  0  0  0  0  0  0  0  0  0  0  0
   -3.1509    4.3883   -2.8645 C   0  0  0  0  0  0  0  0  0  0  0  0
    1.3894   -2.3822   -0.9617 H   0  0  0  0  0  0  0  0  0  0  0  0
    3.0224   -2.5348   -1.6284 H   0  0  0  0  0  0  0  0  0  0  0  0
    2.5241   -3.4843   -0.2164 H   0  0  0  0  0  0  0  0  0  0  0  0
    2.7473   -0.4130   -0.2673 H   0  0  0  0  0  0  0  0  0  0  0  0
    7.4294   -0.1794   -0.5296 H   0  0  0  0  0  0  0  0  0  0  0  0
    8.2880   -1.8090    1.1318 H   0  0  0  0  0  0  0  0  0  0  0  0
    0.7060   -0.0124   -0.4225 H   0  0  0  0  0  0  0  0  0  0  0  0
   -2.6705    0.1485    2.2189 H   0  0  0  0  0  0  0  0  0  0  0  0
    1.7606   -1.3179    4.0141 H   0  0  0  0  0  0  0  0  0  0  0  0
    1.2512   -2.7336    3.4180 H   0  0  0  0  0  0  0  0  0  0  0  0
   -4.0167    0.3262   -0.0600 H   0  0  0  0  0  0  0  0  0  0  0  0
   -0.3040    2.0845   -1.3915 H   0  0  0  0  0  0  0  0  0  0  0  0
   -1.2362    3.4710   -3.0691 H   0  0  0  0  0  0  0  0  0  0  0  0
   -2.0868    1.4746   -4.4682 H   0  0  0  0  0  0  0  0  0  0  0  0
   -2.0584    3.0703   -5.2081 H   0  0  0  0  0  0  0  0  0  0  0  0
   -4.1448    1.9942   -5.7821 H   0  0  0  0  0  0  0  0  0  0  0  0
   -4.5330    1.6369   -4.1126 H   0  0  0  0  0  0  0  0  0  0  0  0
   -4.2640    4.3261   -5.3112 H   0  0  0  0  0  0  0  0  0  0  0  0
   -5.1235    5.1492   -3.2542 H   0  0  0  0  0  0  0  0  0  0  0  0
   -5.1361    3.5253   -2.6044 H   0  0  0  0  0  0  0  0  0  0  0  0
   -3.1179    4.7194   -1.8193 H   0  0  0  0  0  0  0  0  0  0  0  0
   -2.7255    5.2045   -3.4641 H   0  0  0  0  0  0  0  0  0  0  0  0
  1  2  1  0
  2  3  1  0
  3  4  2  0
  4  5  1  0
  5  6  2  0
  6  7  1  0
  7  8  2  0
  8  9  1  0
  7 10  1  0
  4 11  1  0
  2 12  1  0
 12 13  1  0
 13 14  2  0
 14 15  1  0
 15 16  2  0
 16 17  1  0
 17 18  2  0
 18 19  1  0
 15 20  1  0
 20 21  1  0
 21 22  2  0
 22 23  1  0
 23 24  1  0
 23 25  1  0
 25 26  1  0
 26 27  1  0
 27 28  1  0
 28 29  1  0
 29 30  1  0
  8  3  1  0
 18 13  1  0
 24 20  2  0
 30 25  1  0
  1 31  1  0
  1 32  1  0
  1 33  1  0
  2 34  1  6
  5 35  1  0
  6 36  1  0
 14 37  1  0
 16 38  1  0
 19 39  1  0
 19 40  1  0
 21 41  1  0
 24 42  1  0
 25 43  1  0
 26 44  1  0
 26 45  1  0
 27 46  1  0
 27 47  1  0
 28 48  1  0
 29 49  1  0
 29 50  1  0
 30 51  1  0
 30 52  1  0
M  END
>  <energy_abs>  (46) 
34.69294750514395

>  <SMILES>  (46) 
C[C@H](c1c(ccc(c1Cl)F)Cl)Oc2cc(cnc2N)c3cnn(c3)C4CCNCC4

>  <cluster_no>  (46) 
46

>  <fda_drugs_id>  (46) 
KTEIFNKAUNYNJU-GFCCVEGCSA-N

>  <initial_conformation_id>  (46) 
270

>  <minimize_method>  (46) 
MMFF

$$$$

     RDKit          3D

 52 55  0  0  0  0  0  0  0  0999 V2000
    2.9724   -2.1986   -1.7544 C   0  0  0  0  0  0  0  0  0  0  0  0
    2.8612   -1.4840   -0.4053 C   0  0  2  0  0  0  0  0  0  0  0  0
    4.1669   -1.5718    0.3770 C   0  0  0  0  0  0  0  0  0  0  0  0
    5.0286   -0.4525    0.4534 C   0  0  0  0  0  0  0  0  0  0  0  0
    6.2278   -0.4965    1.1794 C   0  0  0  0  0  0  0  0  0  0  0  0
    6.6037   -1.6581    1.8414 C   0  0  0  0  0  0  0  0  0  0  0  0
    5.7827   -2.7733    1.7670 C   0  0  0  0  0  0  0  0  0  0  0  0
    4.5814   -2.7475    1.0443 C   0  0  0  0  0  0  0  0  0  0  0  0
    3.6649   -4.2190    1.0184 Cl  0  0  0  0  0  0  0  0  0  0  0  0
    6.1737   -3.8884    2.4034 F   0  0  0  0  0  0  0  0  0  0  0  0
    4.6942    1.0423   -0.3569 Cl  0  0  0  0  0  0  0  0  0  0  0  0
    1.7527   -2.0594    0.3160 O   0  0  0  0  0  0  0  0  0  0  0  0
    1.0096   -1.0981    0.9516 C   0  0  0  0  0  0  0  0  0  0  0  0
   -0.0049   -0.4476    0.2502 C   0  0  0  0  0  0  0  0  0  0  0  0
   -0.7845    0.5088    0.9015 C   0  0  0  0  0  0  0  0  0  0  0  0
   -0.4997    0.7409    2.2464 C   0  0  0  0  0  0  0  0  0  0  0  0
    0.4648    0.1017    2.9580 N   0  0  0  0  0  0  0  0  0  0  0  0
    1.1948   -0.8200    2.3076 C   0  0  0  0  0  0  0  0  0  0  0  0
    2.1870   -1.4552    3.0544 N   0  0  0  0  0  0  0  0  0  0  0  0
   -1.8489    1.2270    0.2260 C   0  0  0  0  0  0  0  0  0  0  0  0
   -3.0042    1.8647    0.7356 C   0  0  0  0  0  0  0  0  0  0  0  0
   -3.7445    2.4362   -0.2170 N   0  0  0  0  0  0  0  0  0  0  0  0
   -3.0679    2.1696   -1.3501 N   0  0  0  0  0  0  0  0  0  0  0  0
   -1.9248    1.4492   -1.1337 C   0  0  0  0  0  0  0  0  0  0  0  0
   -3.5863    2.6530   -2.6236 C   0  0  0  0  0  0  0  0  0  0  0  0
   -2.6403    3.6639   -3.2794 C   0  0  0  0  0  0  0  0  0  0  0  0
   -3.1942    4.1183   -4.6250 C   0  0  0  0  0  0  0  0  0  0  0  0
   -3.4479    2.9743   -5.5001 N   0  0  0  0  0  0  0  0  0  0  0  0
   -4.4173    2.0487   -4.9150 C   0  0  0  0  0  0  0  0  0  0  0  0
   -3.9160    1.5042   -3.5823 C   0  0  0  0  0  0  0  0  0  0  0  0
    3.1280   -3.2757   -1.6426 H   0  0  0  0  0  0  0  0  0  0  0  0
    2.0406   -2.0806   -2.3188 H   0  0  0  0  0  0  0  0  0  0  0  0
    3.7943   -1.7942   -2.3544 H   0  0  0  0  0  0  0  0  0  0  0  0
    2.6203   -0.4419   -0.6411 H   0  0  0  0  0  0  0  0  0  0  0  0
    6.8734    0.3779    1.2298 H   0  0  0  0  0  0  0  0  0  0  0  0
    7.5282   -1.7044    2.4082 H   0  0  0  0  0  0  0  0  0  0  0  0
   -0.1800   -0.7057   -0.7892 H   0  0  0  0  0  0  0  0  0  0  0  0
   -1.0502    1.4793    2.8238 H   0  0  0  0  0  0  0  0  0  0  0  0
    2.1333   -2.4617    2.9273 H   0  0  0  0  0  0  0  0  0  0  0  0
    2.0653   -1.1720    4.0223 H   0  0  0  0  0  0  0  0  0  0  0  0
   -3.3429    1.9339    1.7615 H   0  0  0  0  0  0  0  0  0  0  0  0
   -1.2752    1.1746   -1.9529 H   0  0  0  0  0  0  0  0  0  0  0  0
   -4.5258    3.1745   -2.3896 H   0  0  0  0  0  0  0  0  0  0  0  0
   -2.5018    4.5326   -2.6242 H   0  0  0  0  0  0  0  0  0  0  0  0
   -1.6459    3.2222   -3.4263 H   0  0  0  0  0  0  0  0  0  0  0  0
   -2.4668    4.7798   -5.1079 H   0  0  0  0  0  0  0  0  0  0  0  0
   -4.1132    4.7002   -4.4850 H   0  0  0  0  0  0  0  0  0  0  0  0
   -3.8027    3.3097   -6.3969 H   0  0  0  0  0  0  0  0  0  0  0  0
   -5.3869    2.5451   -4.7868 H   0  0  0  0  0  0  0  0  0  0  0  0
   -4.5740    1.2145   -5.6077 H   0  0  0  0  0  0  0  0  0  0  0  0
   -4.6770    0.8493   -3.1404 H   0  0  0  0  0  0  0  0  0  0  0  0
   -3.0296    0.8801   -3.7557 H   0  0  0  0  0  0  0  0  0  0  0  0
  1  2  1  0
  2  3  1  0
  3  4  2  0
  4  5  1  0
  5  6  2  0
  6  7  1  0
  7  8  2  0
  8  9  1  0
  7 10  1  0
  4 11  1  0
  2 12  1  0
 12 13  1  0
 13 14  2  0
 14 15  1  0
 15 16  2  0
 16 17  1  0
 17 18  2  0
 18 19  1  0
 15 20  1  0
 20 21  1  0
 21 22  2  0
 22 23  1  0
 23 24  1  0
 23 25  1  0
 25 26  1  0
 26 27  1  0
 27 28  1  0
 28 29  1  0
 29 30  1  0
  8  3  1  0
 18 13  1  0
 24 20  2  0
 30 25  1  0
  1 31  1  0
  1 32  1  0
  1 33  1  0
  2 34  1  6
  5 35  1  0
  6 36  1  0
 14 37  1  0
 16 38  1  0
 19 39  1  0
 19 40  1  0
 21 41  1  0
 24 42  1  0
 25 43  1  0
 26 44  1  0
 26 45  1  0
 27 46  1  0
 27 47  1  0
 28 48  1  0
 29 49  1  0
 29 50  1  0
 30 51  1  0
 30 52  1  0
M  END
>  <energy_abs>  (47) 
21.16420225662758

>  <SMILES>  (47) 
C[C@H](c1c(ccc(c1Cl)F)Cl)Oc2cc(cnc2N)c3cnn(c3)C4CCNCC4

>  <cluster_no>  (47) 
47

>  <fda_drugs_id>  (47) 
KTEIFNKAUNYNJU-GFCCVEGCSA-N

>  <initial_conformation_id>  (47) 
268

>  <minimize_method>  (47) 
MMFF

$$$$

     RDKit          3D

 52 55  0  0  0  0  0  0  0  0999 V2000
    3.8179    0.5910    1.9236 C   0  0  0  0  0  0  0  0  0  0  0  0
    3.4197   -0.8897    1.9251 C   0  0  2  0  0  0  0  0  0  0  0  0
    4.5093   -1.7547    1.2884 C   0  0  0  0  0  0  0  0  0  0  0  0
    5.3109   -2.6142    2.0856 C   0  0  0  0  0  0  0  0  0  0  0  0
    6.3108   -3.4193    1.5189 C   0  0  0  0  0  0  0  0  0  0  0  0
    6.5641   -3.3687    0.1535 C   0  0  0  0  0  0  0  0  0  0  0  0
    5.8028   -2.5254   -0.6430 C   0  0  0  0  0  0  0  0  0  0  0  0
    4.7773   -1.7333   -0.1013 C   0  0  0  0  0  0  0  0  0  0  0  0
    3.8733   -0.7581   -1.2228 Cl  0  0  0  0  0  0  0  0  0  0  0  0
    6.0752   -2.4863   -1.9608 F   0  0  0  0  0  0  0  0  0  0  0  0
    5.1183   -2.7507    3.7974 Cl  0  0  0  0  0  0  0  0  0  0  0  0
    2.1792   -1.1811    1.2689 O   0  0  0  0  0  0  0  0  0  0  0  0
    1.0781   -0.4530    1.6307 C   0  0  0  0  0  0  0  0  0  0  0  0
    0.3868    0.1333    0.5612 C   0  0  0  0  0  0  0  0  0  0  0  0
   -0.7915    0.8525    0.7827 C   0  0  0  0  0  0  0  0  0  0  0  0
   -1.2094    0.9440    2.1054 C   0  0  0  0  0  0  0  0  0  0  0  0
   -0.5727    0.3729    3.1608 N   0  0  0  0  0  0  0  0  0  0  0  0
    0.5330   -0.3551    2.9187 C   0  0  0  0  0  0  0  0  0  0  0  0
    1.0952   -0.9651    4.0406 N   0  0  0  0  0  0  0  0  0  0  0  0
   -1.5648    1.4495   -0.2923 C   0  0  0  0  0  0  0  0  0  0  0  0
   -2.6623    2.3425   -0.2544 C   0  0  0  0  0  0  0  0  0  0  0  0
   -3.1430    2.6296   -1.4638 N   0  0  0  0  0  0  0  0  0  0  0  0
   -2.3607    1.9218   -2.2990 N   0  0  0  0  0  0  0  0  0  0  0  0
   -1.3912    1.2107   -1.6430 C   0  0  0  0  0  0  0  0  0  0  0  0
   -2.6014    1.9062   -3.7428 C   0  0  0  0  0  0  0  0  0  0  0  0
   -2.8878    3.2916   -4.3417 C   0  0  0  0  0  0  0  0  0  0  0  0
   -4.3445    3.7213   -4.1864 C   0  0  0  0  0  0  0  0  0  0  0  0
   -5.2620    2.6875   -4.6750 N   0  0  0  0  0  0  0  0  0  0  0  0
   -5.0905    1.4434   -3.9237 C   0  0  0  0  0  0  0  0  0  0  0  0
   -3.6850    0.8898   -4.1225 C   0  0  0  0  0  0  0  0  0  0  0  0
    4.8264    0.7223    2.3381 H   0  0  0  0  0  0  0  0  0  0  0  0
    3.1246    1.1790    2.5418 H   0  0  0  0  0  0  0  0  0  0  0  0
    3.7897    1.0365    0.9204 H   0  0  0  0  0  0  0  0  0  0  0  0
    3.3081   -1.1914    2.9632 H   0  0  0  0  0  0  0  0  0  0  0  0
    6.8986   -4.0923    2.1439 H   0  0  0  0  0  0  0  0  0  0  0  0
    7.3417   -3.9803   -0.2963 H   0  0  0  0  0  0  0  0  0  0  0  0
    0.7866    0.0102   -0.4410 H   0  0  0  0  0  0  0  0  0  0  0  0
   -2.1122    1.4798    2.3851 H   0  0  0  0  0  0  0  0  0  0  0  0
    1.9342   -0.4760    4.3343 H   0  0  0  0  0  0  0  0  0  0  0  0
    1.3053   -1.9384    3.8421 H   0  0  0  0  0  0  0  0  0  0  0  0
   -3.1395    2.7941    0.6046 H   0  0  0  0  0  0  0  0  0  0  0  0
   -0.6981    0.5864   -2.1908 H   0  0  0  0  0  0  0  0  0  0  0  0
   -1.6512    1.5610   -4.1730 H   0  0  0  0  0  0  0  0  0  0  0  0
   -2.2261    4.0509   -3.9082 H   0  0  0  0  0  0  0  0  0  0  0  0
   -2.6583    3.2533   -5.4174 H   0  0  0  0  0  0  0  0  0  0  0  0
   -4.5037    4.6301   -4.7782 H   0  0  0  0  0  0  0  0  0  0  0  0
   -4.5795    3.9850   -3.1491 H   0  0  0  0  0  0  0  0  0  0  0  0
   -6.2195    3.0149   -4.5422 H   0  0  0  0  0  0  0  0  0  0  0  0
   -5.8152    0.7056   -4.2931 H   0  0  0  0  0  0  0  0  0  0  0  0
   -5.3146    1.5984   -2.8610 H   0  0  0  0  0  0  0  0  0  0  0  0
   -3.5702   -0.0401   -3.5525 H   0  0  0  0  0  0  0  0  0  0  0  0
   -3.5599    0.6238   -5.1804 H   0  0  0  0  0  0  0  0  0  0  0  0
  1  2  1  0
  2  3  1  0
  3  4  2  0
  4  5  1  0
  5  6  2  0
  6  7  1  0
  7  8  2  0
  8  9  1  0
  7 10  1  0
  4 11  1  0
  2 12  1  0
 12 13  1  0
 13 14  2  0
 14 15  1  0
 15 16  2  0
 16 17  1  0
 17 18  2  0
 18 19  1  0
 15 20  1  0
 20 21  1  0
 21 22  2  0
 22 23  1  0
 23 24  1  0
 23 25  1  0
 25 26  1  0
 26 27  1  0
 27 28  1  0
 28 29  1  0
 29 30  1  0
  8  3  1  0
 18 13  1  0
 24 20  2  0
 30 25  1  0
  1 31  1  0
  1 32  1  0
  1 33  1  0
  2 34  1  1
  5 35  1  0
  6 36  1  0
 14 37  1  0
 16 38  1  0
 19 39  1  0
 19 40  1  0
 21 41  1  0
 24 42  1  0
 25 43  1  0
 26 44  1  0
 26 45  1  0
 27 46  1  0
 27 47  1  0
 28 48  1  0
 29 49  1  0
 29 50  1  0
 30 51  1  0
 30 52  1  0
M  END
>  <energy_abs>  (48) 
36.11784107041689

>  <SMILES>  (48) 
C[C@H](c1c(ccc(c1Cl)F)Cl)Oc2cc(cnc2N)c3cnn(c3)C4CCNCC4

>  <cluster_no>  (48) 
48

>  <fda_drugs_id>  (48) 
KTEIFNKAUNYNJU-GFCCVEGCSA-N

>  <initial_conformation_id>  (48) 
267

>  <minimize_method>  (48) 
MMFF

$$$$

     RDKit          3D

 52 55  0  0  0  0  0  0  0  0999 V2000
    1.8570   -2.8221    0.8491 C   0  0  0  0  0  0  0  0  0  0  0  0
    2.7059   -1.5695    0.5955 C   0  0  2  0  0  0  0  0  0  0  0  0
    4.1874   -1.9265    0.4766 C   0  0  0  0  0  0  0  0  0  0  0  0
    4.8149   -1.9701   -0.7947 C   0  0  0  0  0  0  0  0  0  0  0  0
    6.1792   -2.2707   -0.9311 C   0  0  0  0  0  0  0  0  0  0  0  0
    6.9456   -2.5692    0.1902 C   0  0  0  0  0  0  0  0  0  0  0  0
    6.3439   -2.5695    1.4432 C   0  0  0  0  0  0  0  0  0  0  0  0
    4.9860   -2.2536    1.5999 C   0  0  0  0  0  0  0  0  0  0  0  0
    4.3628   -2.3189    3.2192 Cl  0  0  0  0  0  0  0  0  0  0  0  0
    7.0972   -2.8991    2.5074 F   0  0  0  0  0  0  0  0  0  0  0  0
    3.9550   -1.7021   -2.2759 Cl  0  0  0  0  0  0  0  0  0  0  0  0
    2.5478   -0.5804    1.6264 O   0  0  0  0  0  0  0  0  0  0  0  0
    1.3185    0.0159    1.7477 C   0  0  0  0  0  0  0  0  0  0  0  0
    0.5512    0.4528    0.6674 C   0  0  0  0  0  0  0  0  0  0  0  0
   -0.6742    1.0854    0.8970 C   0  0  0  0  0  0  0  0  0  0  0  0
   -1.0480    1.2864    2.2231 C   0  0  0  0  0  0  0  0  0  0  0  0
   -0.3115    0.9055    3.2944 N   0  0  0  0  0  0  0  0  0  0  0  0
    0.8549    0.2822    3.0453 C   0  0  0  0  0  0  0  0  0  0  0  0
    1.5486   -0.1775    4.1639 N   0  0  0  0  0  0  0  0  0  0  0  0
   -1.5208    1.5235   -0.1950 C   0  0  0  0  0  0  0  0  0  0  0  0
   -2.4365    2.5958   -0.2872 C   0  0  0  0  0  0  0  0  0  0  0  0
   -3.0455    2.6535   -1.4740 N   0  0  0  0  0  0  0  0  0  0  0  0
   -2.5317    1.6106   -2.1530 N   0  0  0  0  0  0  0  0  0  0  0  0
   -1.6095    0.9056   -1.4259 C   0  0  0  0  0  0  0  0  0  0  0  0
   -2.9565    1.3090   -3.5193 C   0  0  0  0  0  0  0  0  0  0  0  0
   -4.4454    0.9482   -3.6063 C   0  0  0  0  0  0  0  0  0  0  0  0
   -5.3463    2.1768   -3.7086 C   0  0  0  0  0  0  0  0  0  0  0  0
   -4.9191    3.0473   -4.8079 N   0  0  0  0  0  0  0  0  0  0  0  0
   -3.5670    3.5544   -4.5648 C   0  0  0  0  0  0  0  0  0  0  0  0
   -2.5590    2.4089   -4.5140 C   0  0  0  0  0  0  0  0  0  0  0  0
    2.0276   -3.2441    1.8451 H   0  0  0  0  0  0  0  0  0  0  0  0
    0.7883   -2.5855    0.7955 H   0  0  0  0  0  0  0  0  0  0  0  0
    2.0641   -3.5987    0.1046 H   0  0  0  0  0  0  0  0  0  0  0  0
    2.3839   -1.1218   -0.3463 H   0  0  0  0  0  0  0  0  0  0  0  0
    6.6510   -2.2735   -1.9158 H   0  0  0  0  0  0  0  0  0  0  0  0
    8.0000   -2.8129    0.0973 H   0  0  0  0  0  0  0  0  0  0  0  0
    0.9076    0.3422   -0.3503 H   0  0  0  0  0  0  0  0  0  0  0  0
   -1.9883    1.7668    2.4840 H   0  0  0  0  0  0  0  0  0  0  0  0
    1.1330    0.2334    4.9941 H   0  0  0  0  0  0  0  0  0  0  0  0
    2.5492   -0.0228    4.0721 H   0  0  0  0  0  0  0  0  0  0  0  0
   -2.6825    3.3428    0.4573 H   0  0  0  0  0  0  0  0  0  0  0  0
   -1.1199    0.0333   -1.8382 H   0  0  0  0  0  0  0  0  0  0  0  0
   -2.3884    0.4071   -3.7902 H   0  0  0  0  0  0  0  0  0  0  0  0
   -4.7522    0.3357   -2.7486 H   0  0  0  0  0  0  0  0  0  0  0  0
   -4.5985    0.3299   -4.5023 H   0  0  0  0  0  0  0  0  0  0  0  0
   -6.3733    1.8448   -3.9045 H   0  0  0  0  0  0  0  0  0  0  0  0
   -5.3765    2.7353   -2.7651 H   0  0  0  0  0  0  0  0  0  0  0  0
   -5.5582    3.8432   -4.8569 H   0  0  0  0  0  0  0  0  0  0  0  0
   -3.5384    4.1560   -3.6489 H   0  0  0  0  0  0  0  0  0  0  0  0
   -3.2944    4.2277   -5.3870 H   0  0  0  0  0  0  0  0  0  0  0  0
   -1.5621    2.8055   -4.2826 H   0  0  0  0  0  0  0  0  0  0  0  0
   -2.4911    1.9612   -5.5157 H   0  0  0  0  0  0  0  0  0  0  0  0
  1  2  1  0
  2  3  1  0
  3  4  2  0
  4  5  1  0
  5  6  2  0
  6  7  1  0
  7  8  2  0
  8  9  1  0
  7 10  1  0
  4 11  1  0
  2 12  1  0
 12 13  1  0
 13 14  2  0
 14 15  1  0
 15 16  2  0
 16 17  1  0
 17 18  2  0
 18 19  1  0
 15 20  1  0
 20 21  1  0
 21 22  2  0
 22 23  1  0
 23 24  1  0
 23 25  1  0
 25 26  1  0
 26 27  1  0
 27 28  1  0
 28 29  1  0
 29 30  1  0
  8  3  1  0
 18 13  1  0
 24 20  2  0
 30 25  1  0
  1 31  1  0
  1 32  1  0
  1 33  1  0
  2 34  1  6
  5 35  1  0
  6 36  1  0
 14 37  1  0
 16 38  1  0
 19 39  1  0
 19 40  1  0
 21 41  1  0
 24 42  1  0
 25 43  1  0
 26 44  1  0
 26 45  1  0
 27 46  1  0
 27 47  1  0
 28 48  1  0
 29 49  1  0
 29 50  1  0
 30 51  1  0
 30 52  1  0
M  END
>  <energy_abs>  (49) 
23.2072601768753

>  <SMILES>  (49) 
C[C@H](c1c(ccc(c1Cl)F)Cl)Oc2cc(cnc2N)c3cnn(c3)C4CCNCC4

>  <cluster_no>  (49) 
49

>  <fda_drugs_id>  (49) 
KTEIFNKAUNYNJU-GFCCVEGCSA-N

>  <initial_conformation_id>  (49) 
266

>  <minimize_method>  (49) 
MMFF

$$$$

     RDKit          3D

 52 55  0  0  0  0  0  0  0  0999 V2000
    2.3223   -3.1703   -0.0315 C   0  0  0  0  0  0  0  0  0  0  0  0
    2.9725   -1.8418    0.3705 C   0  0  2  0  0  0  0  0  0  0  0  0
    4.4193   -2.0607    0.8115 C   0  0  0  0  0  0  0  0  0  0  0  0
    5.4864   -1.7582   -0.0664 C   0  0  0  0  0  0  0  0  0  0  0  0
    6.8242   -1.9444    0.3105 C   0  0  0  0  0  0  0  0  0  0  0  0
    7.1351   -2.4470    1.5658 C   0  0  0  0  0  0  0  0  0  0  0  0
    6.1061   -2.7707    2.4371 C   0  0  0  0  0  0  0  0  0  0  0  0
    4.7623   -2.5915    2.0776 C   0  0  0  0  0  0  0  0  0  0  0  0
    3.5817   -3.0859    3.2521 Cl  0  0  0  0  0  0  0  0  0  0  0  0
    6.4310   -3.2758    3.6372 F   0  0  0  0  0  0  0  0  0  0  0  0
    5.2346   -1.1656   -1.6736 Cl  0  0  0  0  0  0  0  0  0  0  0  0
    2.2406   -1.2332    1.4399 O   0  0  0  0  0  0  0  0  0  0  0  0
    1.3404   -0.2387    1.1637 C   0  0  0  0  0  0  0  0  0  0  0  0
    0.6585   -0.0772   -0.0431 C   0  0  0  0  0  0  0  0  0  0  0  0
   -0.2821    0.9524   -0.1796 C   0  0  0  0  0  0  0  0  0  0  0  0
   -0.4893    1.7761    0.9268 C   0  0  0  0  0  0  0  0  0  0  0  0
    0.1469    1.6421    2.1153 N   0  0  0  0  0  0  0  0  0  0  0  0
    1.0399    0.6388    2.2187 C   0  0  0  0  0  0  0  0  0  0  0  0
    1.7232    0.5552    3.4339 N   0  0  0  0  0  0  0  0  0  0  0  0
   -1.0071    1.1393   -1.4233 C   0  0  0  0  0  0  0  0  0  0  0  0
   -0.6709    0.7982   -2.7533 C   0  0  0  0  0  0  0  0  0  0  0  0
   -1.6228    1.1253   -3.6302 N   0  0  0  0  0  0  0  0  0  0  0  0
   -2.5821    1.6860   -2.8680 N   0  0  0  0  0  0  0  0  0  0  0  0
   -2.2526    1.7192   -1.5400 C   0  0  0  0  0  0  0  0  0  0  0  0
   -3.8111    2.1617   -3.4989 C   0  0  0  0  0  0  0  0  0  0  0  0
   -5.0472    1.3654   -3.0504 C   0  0  0  0  0  0  0  0  0  0  0  0
   -5.7959    2.0504   -1.9101 C   0  0  0  0  0  0  0  0  0  0  0  0
   -6.1333    3.4498   -2.1587 N   0  0  0  0  0  0  0  0  0  0  0  0
   -5.4602    4.0548   -3.3035 C   0  0  0  0  0  0  0  0  0  0  0  0
   -3.9856    3.6789   -3.3413 C   0  0  0  0  0  0  0  0  0  0  0  0
    2.2509   -3.8680    0.8114 H   0  0  0  0  0  0  0  0  0  0  0  0
    2.8863   -3.6612   -0.8332 H   0  0  0  0  0  0  0  0  0  0  0  0
    1.2960   -3.0142   -0.3808 H   0  0  0  0  0  0  0  0  0  0  0  0
    2.9608   -1.1687   -0.4898 H   0  0  0  0  0  0  0  0  0  0  0  0
    7.6300   -1.7011   -0.3786 H   0  0  0  0  0  0  0  0  0  0  0  0
    8.1672   -2.5958    1.8665 H   0  0  0  0  0  0  0  0  0  0  0  0
    0.8242   -0.7606   -0.8709 H   0  0  0  0  0  0  0  0  0  0  0  0
   -1.1902    2.6097    0.8969 H   0  0  0  0  0  0  0  0  0  0  0  0
    1.2831    1.1985    4.0869 H   0  0  0  0  0  0  0  0  0  0  0  0
    1.7635   -0.4074    3.7612 H   0  0  0  0  0  0  0  0  0  0  0  0
    0.2336    0.3316   -3.1236 H   0  0  0  0  0  0  0  0  0  0  0  0
   -2.9237    2.1432   -0.8076 H   0  0  0  0  0  0  0  0  0  0  0  0
   -3.6808    1.9523   -4.5707 H   0  0  0  0  0  0  0  0  0  0  0  0
   -5.7320    1.2683   -3.9034 H   0  0  0  0  0  0  0  0  0  0  0  0
   -4.7790    0.3408   -2.7574 H   0  0  0  0  0  0  0  0  0  0  0  0
   -6.7149    1.4911   -1.6979 H   0  0  0  0  0  0  0  0  0  0  0  0
   -5.2009    2.0006   -0.9924 H   0  0  0  0  0  0  0  0  0  0  0  0
   -7.1439    3.5558   -2.2665 H   0  0  0  0  0  0  0  0  0  0  0  0
   -5.5604    5.1438   -3.2354 H   0  0  0  0  0  0  0  0  0  0  0  0
   -5.9558    3.7486   -4.2323 H   0  0  0  0  0  0  0  0  0  0  0  0
   -3.4968    4.0495   -2.4319 H   0  0  0  0  0  0  0  0  0  0  0  0
   -3.4920    4.1924   -4.1773 H   0  0  0  0  0  0  0  0  0  0  0  0
  1  2  1  0
  2  3  1  0
  3  4  2  0
  4  5  1  0
  5  6  2  0
  6  7  1  0
  7  8  2  0
  8  9  1  0
  7 10  1  0
  4 11  1  0
  2 12  1  0
 12 13  1  0
 13 14  2  0
 14 15  1  0
 15 16  2  0
 16 17  1  0
 17 18  2  0
 18 19  1  0
 15 20  1  0
 20 21  1  0
 21 22  2  0
 22 23  1  0
 23 24  1  0
 23 25  1  0
 25 26  1  0
 26 27  1  0
 27 28  1  0
 28 29  1  0
 29 30  1  0
  8  3  1  0
 18 13  1  0
 24 20  2  0
 30 25  1  0
  1 31  1  0
  1 32  1  0
  1 33  1  0
  2 34  1  6
  5 35  1  0
  6 36  1  0
 14 37  1  0
 16 38  1  0
 19 39  1  0
 19 40  1  0
 21 41  1  0
 24 42  1  0
 25 43  1  0
 26 44  1  0
 26 45  1  0
 27 46  1  0
 27 47  1  0
 28 48  1  0
 29 49  1  0
 29 50  1  0
 30 51  1  0
 30 52  1  0
M  END
>  <energy_abs>  (50) 
31.234102481797663

>  <SMILES>  (50) 
C[C@H](c1c(ccc(c1Cl)F)Cl)Oc2cc(cnc2N)c3cnn(c3)C4CCNCC4

>  <cluster_no>  (50) 
50

>  <fda_drugs_id>  (50) 
KTEIFNKAUNYNJU-GFCCVEGCSA-N

>  <initial_conformation_id>  (50) 
265

>  <minimize_method>  (50) 
MMFF

$$$$

     RDKit          3D

 52 55  0  0  0  0  0  0  0  0999 V2000
    2.0203   -3.7309    0.1594 C   0  0  0  0  0  0  0  0  0  0  0  0
    2.4250   -2.2815    0.4393 C   0  0  2  0  0  0  0  0  0  0  0  0
    3.9331   -2.1390    0.6252 C   0  0  0  0  0  0  0  0  0  0  0  0
    4.7269   -1.5516   -0.3898 C   0  0  0  0  0  0  0  0  0  0  0  0
    6.1159   -1.4115   -0.2481 C   0  0  0  0  0  0  0  0  0  0  0  0
    6.7517   -1.8570    0.9039 C   0  0  0  0  0  0  0  0  0  0  0  0
    5.9963   -2.4460    1.9073 C   0  0  0  0  0  0  0  0  0  0  0  0
    4.6069   -2.5944    1.7827 C   0  0  0  0  0  0  0  0  0  0  0  0
    3.7882   -3.3474    3.1121 Cl  0  0  0  0  0  0  0  0  0  0  0  0
    6.6329   -2.8756    3.0081 F   0  0  0  0  0  0  0  0  0  0  0  0
    4.0623   -0.9772   -1.8837 Cl  0  0  0  0  0  0  0  0  0  0  0  0
    1.7060   -1.8240    1.6006 O   0  0  0  0  0  0  0  0  0  0  0  0
    1.2662   -0.5268    1.5148 C   0  0  0  0  0  0  0  0  0  0  0  0
    0.3718   -0.1192    0.5232 C   0  0  0  0  0  0  0  0  0  0  0  0
   -0.0711    1.2044    0.4939 C   0  0  0  0  0  0  0  0  0  0  0  0
    0.4064    2.0485    1.4931 C   0  0  0  0  0  0  0  0  0  0  0  0
    1.2459    1.6691    2.4881 N   0  0  0  0  0  0  0  0  0  0  0  0
    1.6502    0.3884    2.5042 C   0  0  0  0  0  0  0  0  0  0  0  0
    2.4858   -0.0087    3.5607 N   0  0  0  0  0  0  0  0  0  0  0  0
   -0.9831    1.6894   -0.5247 C   0  0  0  0  0  0  0  0  0  0  0  0
   -1.1853    2.9912   -1.0405 C   0  0  0  0  0  0  0  0  0  0  0  0
   -2.1399    3.0367   -1.9722 N   0  0  0  0  0  0  0  0  0  0  0  0
   -2.5666    1.7632   -2.0551 N   0  0  0  0  0  0  0  0  0  0  0  0
   -1.9008    0.9183   -1.2085 C   0  0  0  0  0  0  0  0  0  0  0  0
   -3.6445    1.3980   -2.9708 C   0  0  0  0  0  0  0  0  0  0  0  0
   -5.0102    1.8169   -2.4045 C   0  0  0  0  0  0  0  0  0  0  0  0
   -6.0403    1.9106   -3.5226 C   0  0  0  0  0  0  0  0  0  0  0  0
   -5.6928    2.9137   -4.5277 N   0  0  0  0  0  0  0  0  0  0  0  0
   -4.2575    3.1577   -4.6782 C   0  0  0  0  0  0  0  0  0  0  0  0
   -3.4145    1.9173   -4.4013 C   0  0  0  0  0  0  0  0  0  0  0  0
    2.2234   -4.3951    1.0044 H   0  0  0  0  0  0  0  0  0  0  0  0
    0.9411   -3.7894   -0.0224 H   0  0  0  0  0  0  0  0  0  0  0  0
    2.5405   -4.1265   -0.7191 H   0  0  0  0  0  0  0  0  0  0  0  0
    2.0963   -1.7168   -0.4369 H   0  0  0  0  0  0  0  0  0  0  0  0
    6.7080   -0.9545   -1.0396 H   0  0  0  0  0  0  0  0  0  0  0  0
    7.8260   -1.7536    1.0258 H   0  0  0  0  0  0  0  0  0  0  0  0
    0.0219   -0.8334   -0.2154 H   0  0  0  0  0  0  0  0  0  0  0  0
    0.1086    3.0922    1.5491 H   0  0  0  0  0  0  0  0  0  0  0  0
    2.0448   -0.8018    4.0219 H   0  0  0  0  0  0  0  0  0  0  0  0
    3.3537   -0.3624    3.1739 H   0  0  0  0  0  0  0  0  0  0  0  0
   -0.6735    3.9096   -0.7816 H   0  0  0  0  0  0  0  0  0  0  0  0
   -2.1498   -0.1322   -1.1582 H   0  0  0  0  0  0  0  0  0  0  0  0
   -3.6153    0.3000   -3.0243 H   0  0  0  0  0  0  0  0  0  0  0  0
   -4.9477    2.7830   -1.8852 H   0  0  0  0  0  0  0  0  0  0  0  0
   -5.3359    1.0876   -1.6517 H   0  0  0  0  0  0  0  0  0  0  0  0
   -7.0227    2.1572   -3.1043 H   0  0  0  0  0  0  0  0  0  0  0  0
   -6.1385    0.9306   -4.0073 H   0  0  0  0  0  0  0  0  0  0  0  0
   -6.1125    2.6704   -5.4249 H   0  0  0  0  0  0  0  0  0  0  0  0
   -3.9644    3.9728   -4.0055 H   0  0  0  0  0  0  0  0  0  0  0  0
   -4.0644    3.5175   -5.6954 H   0  0  0  0  0  0  0  0  0  0  0  0
   -2.3550    2.1273   -4.5925 H   0  0  0  0  0  0  0  0  0  0  0  0
   -3.7014    1.1331   -5.1157 H   0  0  0  0  0  0  0  0  0  0  0  0
  1  2  1  0
  2  3  1  0
  3  4  2  0
  4  5  1  0
  5  6  2  0
  6  7  1  0
  7  8  2  0
  8  9  1  0
  7 10  1  0
  4 11  1  0
  2 12  1  0
 12 13  1  0
 13 14  2  0
 14 15  1  0
 15 16  2  0
 16 17  1  0
 17 18  2  0
 18 19  1  0
 15 20  1  0
 20 21  1  0
 21 22  2  0
 22 23  1  0
 23 24  1  0
 23 25  1  0
 25 26  1  0
 26 27  1  0
 27 28  1  0
 28 29  1  0
 29 30  1  0
  8  3  1  0
 18 13  1  0
 24 20  2  0
 30 25  1  0
  1 31  1  0
  1 32  1  0
  1 33  1  0
  2 34  1  6
  5 35  1  0
  6 36  1  0
 14 37  1  0
 16 38  1  0
 19 39  1  0
 19 40  1  0
 21 41  1  0
 24 42  1  0
 25 43  1  0
 26 44  1  0
 26 45  1  0
 27 46  1  0
 27 47  1  0
 28 48  1  0
 29 49  1  0
 29 50  1  0
 30 51  1  0
 30 52  1  0
M  END
>  <energy_abs>  (51) 
39.58535372339795

>  <SMILES>  (51) 
C[C@H](c1c(ccc(c1Cl)F)Cl)Oc2cc(cnc2N)c3cnn(c3)C4CCNCC4

>  <cluster_no>  (51) 
51

>  <fda_drugs_id>  (51) 
KTEIFNKAUNYNJU-GFCCVEGCSA-N

>  <initial_conformation_id>  (51) 
264

>  <minimize_method>  (51) 
MMFF

$$$$

     RDKit          3D

 52 55  0  0  0  0  0  0  0  0999 V2000
    3.2688   -2.0977   -1.1548 C   0  0  0  0  0  0  0  0  0  0  0  0
    3.5152   -1.3302    0.1477 C   0  0  2  0  0  0  0  0  0  0  0  0
    4.6299   -1.9683    0.9731 C   0  0  0  0  0  0  0  0  0  0  0  0
    5.9082   -1.3641    1.0352 C   0  0  0  0  0  0  0  0  0  0  0  0
    6.9513   -1.9241    1.7863 C   0  0  0  0  0  0  0  0  0  0  0  0
    6.7516   -3.1065    2.4872 C   0  0  0  0  0  0  0  0  0  0  0  0
    5.5121   -3.7252    2.4315 C   0  0  0  0  0  0  0  0  0  0  0  0
    4.4576   -3.1780    1.6861 C   0  0  0  0  0  0  0  0  0  0  0  0
    2.9708   -4.0678    1.6848 Cl  0  0  0  0  0  0  0  0  0  0  0  0
    5.3480   -4.8702    3.1098 F   0  0  0  0  0  0  0  0  0  0  0  0
    6.2922    0.0974    0.1909 Cl  0  0  0  0  0  0  0  0  0  0  0  0
    2.3071   -1.2756    0.9316 O   0  0  0  0  0  0  0  0  0  0  0  0
    1.6721   -0.0655    0.8251 C   0  0  0  0  0  0  0  0  0  0  0  0
    0.6198    0.0581   -0.0799 C   0  0  0  0  0  0  0  0  0  0  0  0
   -0.0643    1.2692   -0.1666 C   0  0  0  0  0  0  0  0  0  0  0  0
    0.3574    2.2962    0.6756 C   0  0  0  0  0  0  0  0  0  0  0  0
    1.3614    2.1878    1.5822 N   0  0  0  0  0  0  0  0  0  0  0  0
    1.9907    1.0048    1.6711 C   0  0  0  0  0  0  0  0  0  0  0  0
    3.0069    0.8847    2.6318 N   0  0  0  0  0  0  0  0  0  0  0  0
   -1.1601    1.4402   -1.0981 C   0  0  0  0  0  0  0  0  0  0  0  0
   -1.3735    0.8959   -2.3835 C   0  0  0  0  0  0  0  0  0  0  0  0
   -2.5328    1.2814   -2.9212 N   0  0  0  0  0  0  0  0  0  0  0  0
   -3.0814    2.0632   -1.9733 N   0  0  0  0  0  0  0  0  0  0  0  0
   -2.2897    2.1965   -0.8643 C   0  0  0  0  0  0  0  0  0  0  0  0
   -4.3954    2.6680   -2.1756 C   0  0  0  0  0  0  0  0  0  0  0  0
   -4.5262    3.3756   -3.5345 C   0  0  0  0  0  0  0  0  0  0  0  0
   -5.2776    2.5070   -4.5369 C   0  0  0  0  0  0  0  0  0  0  0  0
   -6.6311    2.1649   -4.0933 N   0  0  0  0  0  0  0  0  0  0  0  0
   -6.7914    2.0725   -2.6429 C   0  0  0  0  0  0  0  0  0  0  0  0
   -5.5129    1.6421   -1.9364 C   0  0  0  0  0  0  0  0  0  0  0  0
    2.8021   -3.0730   -0.9832 H   0  0  0  0  0  0  0  0  0  0  0  0
    2.5791   -1.5389   -1.7980 H   0  0  0  0  0  0  0  0  0  0  0  0
    4.2012   -2.2508   -1.7108 H   0  0  0  0  0  0  0  0  0  0  0  0
    3.8000   -0.3103   -0.1353 H   0  0  0  0  0  0  0  0  0  0  0  0
    7.9260   -1.4411    1.8228 H   0  0  0  0  0  0  0  0  0  0  0  0
    7.5523   -3.5516    3.0709 H   0  0  0  0  0  0  0  0  0  0  0  0
    0.3298   -0.7983   -0.6833 H   0  0  0  0  0  0  0  0  0  0  0  0
   -0.1097    3.2772    0.6524 H   0  0  0  0  0  0  0  0  0  0  0  0
    2.8166    0.0513    3.1824 H   0  0  0  0  0  0  0  0  0  0  0  0
    3.8954    0.7468    2.1627 H   0  0  0  0  0  0  0  0  0  0  0  0
   -0.7302    0.2383   -2.9546 H   0  0  0  0  0  0  0  0  0  0  0  0
   -2.6064    2.7867   -0.0145 H   0  0  0  0  0  0  0  0  0  0  0  0
   -4.4725    3.4490   -1.4070 H   0  0  0  0  0  0  0  0  0  0  0  0
   -5.0856    4.3110   -3.3948 H   0  0  0  0  0  0  0  0  0  0  0  0
   -3.5479    3.6633   -3.9385 H   0  0  0  0  0  0  0  0  0  0  0  0
   -4.7240    1.5802   -4.7232 H   0  0  0  0  0  0  0  0  0  0  0  0
   -5.3409    3.0257   -5.4998 H   0  0  0  0  0  0  0  0  0  0  0  0
   -7.3108    2.8247   -4.4738 H   0  0  0  0  0  0  0  0  0  0  0  0
   -7.5954    1.3616   -2.4226 H   0  0  0  0  0  0  0  0  0  0  0  0
   -7.1123    3.0461   -2.2522 H   0  0  0  0  0  0  0  0  0  0  0  0
   -5.2204    0.6445   -2.2913 H   0  0  0  0  0  0  0  0  0  0  0  0
   -5.6951    1.5423   -0.8595 H   0  0  0  0  0  0  0  0  0  0  0  0
  1  2  1  0
  2  3  1  0
  3  4  2  0
  4  5  1  0
  5  6  2  0
  6  7  1  0
  7  8  2  0
  8  9  1  0
  7 10  1  0
  4 11  1  0
  2 12  1  0
 12 13  1  0
 13 14  2  0
 14 15  1  0
 15 16  2  0
 16 17  1  0
 17 18  2  0
 18 19  1  0
 15 20  1  0
 20 21  1  0
 21 22  2  0
 22 23  1  0
 23 24  1  0
 23 25  1  0
 25 26  1  0
 26 27  1  0
 27 28  1  0
 28 29  1  0
 29 30  1  0
  8  3  1  0
 18 13  1  0
 24 20  2  0
 30 25  1  0
  1 31  1  0
  1 32  1  0
  1 33  1  0
  2 34  1  6
  5 35  1  0
  6 36  1  0
 14 37  1  0
 16 38  1  0
 19 39  1  0
 19 40  1  0
 21 41  1  0
 24 42  1  0
 25 43  1  0
 26 44  1  0
 26 45  1  0
 27 46  1  0
 27 47  1  0
 28 48  1  0
 29 49  1  0
 29 50  1  0
 30 51  1  0
 30 52  1  0
M  END
>  <energy_abs>  (52) 
40.785162803414906

>  <SMILES>  (52) 
C[C@H](c1c(ccc(c1Cl)F)Cl)Oc2cc(cnc2N)c3cnn(c3)C4CCNCC4

>  <cluster_no>  (52) 
52

>  <fda_drugs_id>  (52) 
KTEIFNKAUNYNJU-GFCCVEGCSA-N

>  <initial_conformation_id>  (52) 
263

>  <minimize_method>  (52) 
MMFF

$$$$

     RDKit          3D

 52 55  0  0  0  0  0  0  0  0999 V2000
    2.8377   -4.0384    0.2140 C   0  0  0  0  0  0  0  0  0  0  0  0
    2.7735   -2.5242    0.4308 C   0  0  2  0  0  0  0  0  0  0  0  0
    4.1572   -1.9200    0.6500 C   0  0  0  0  0  0  0  0  0  0  0  0
    4.7678   -1.1440   -0.3632 C   0  0  0  0  0  0  0  0  0  0  0  0
    6.0393   -0.5775   -0.1891 C   0  0  0  0  0  0  0  0  0  0  0  0
    6.7381   -0.7720    0.9948 C   0  0  0  0  0  0  0  0  0  0  0  0
    6.1657   -1.5390    1.9977 C   0  0  0  0  0  0  0  0  0  0  0  0
    4.8953   -2.1120    1.8410 C   0  0  0  0  0  0  0  0  0  0  0  0
    4.2993   -3.0413    3.1765 Cl  0  0  0  0  0  0  0  0  0  0  0  0
    6.8633   -1.7228    3.1298 F   0  0  0  0  0  0  0  0  0  0  0  0
    4.0134   -0.8409   -1.8930 Cl  0  0  0  0  0  0  0  0  0  0  0  0
    1.9006   -2.2621    1.5474 O   0  0  0  0  0  0  0  0  0  0  0  0
    1.1277   -1.1359    1.4091 C   0  0  0  0  0  0  0  0  0  0  0  0
    0.2158   -0.9917    0.3610 C   0  0  0  0  0  0  0  0  0  0  0  0
   -0.5728    0.1582    0.2818 C   0  0  0  0  0  0  0  0  0  0  0  0
   -0.4097    1.0995    1.2944 C   0  0  0  0  0  0  0  0  0  0  0  0
    0.4422    0.9691    2.3416 N   0  0  0  0  0  0  0  0  0  0  0  0
    1.1875   -0.1469    2.4003 C   0  0  0  0  0  0  0  0  0  0  0  0
    2.0183   -0.3066    3.5216 N   0  0  0  0  0  0  0  0  0  0  0  0
   -1.5254    0.3394   -0.7986 C   0  0  0  0  0  0  0  0  0  0  0  0
   -2.1536   -0.6033   -1.6449 C   0  0  0  0  0  0  0  0  0  0  0  0
   -2.9712   -0.0389   -2.5358 N   0  0  0  0  0  0  0  0  0  0  0  0
   -2.8791    1.2763   -2.2669 N   0  0  0  0  0  0  0  0  0  0  0  0
   -2.0193    1.5515   -1.2366 C   0  0  0  0  0  0  0  0  0  0  0  0
   -3.6644    2.2285   -3.0447 C   0  0  0  0  0  0  0  0  0  0  0  0
   -4.6076    3.0490   -2.1610 C   0  0  0  0  0  0  0  0  0  0  0  0
   -5.4653    3.9853   -3.0132 C   0  0  0  0  0  0  0  0  0  0  0  0
   -4.7800    4.5127   -4.1932 N   0  0  0  0  0  0  0  0  0  0  0  0
   -3.3334    4.5489   -4.0437 C   0  0  0  0  0  0  0  0  0  0  0  0
   -2.7762    3.1316   -3.9192 C   0  0  0  0  0  0  0  0  0  0  0  0
    1.8361   -4.4266   -0.0045 H   0  0  0  0  0  0  0  0  0  0  0  0
    3.4974   -4.2935   -0.6219 H   0  0  0  0  0  0  0  0  0  0  0  0
    3.1847   -4.5756    1.1006 H   0  0  0  0  0  0  0  0  0  0  0  0
    2.3247   -2.1262   -0.4816 H   0  0  0  0  0  0  0  0  0  0  0  0
    6.4890    0.0197   -0.9802 H   0  0  0  0  0  0  0  0  0  0  0  0
    7.7224   -0.3379    1.1414 H   0  0  0  0  0  0  0  0  0  0  0  0
    0.1168   -1.7786   -0.3798 H   0  0  0  0  0  0  0  0  0  0  0  0
   -0.9910    2.0171    1.3199 H   0  0  0  0  0  0  0  0  0  0  0  0
    2.9663   -0.4778    3.2039 H   0  0  0  0  0  0  0  0  0  0  0  0
    1.7314   -1.1601    3.9968 H   0  0  0  0  0  0  0  0  0  0  0  0
   -2.0558   -1.6808   -1.6478 H   0  0  0  0  0  0  0  0  0  0  0  0
   -1.8357    2.5693   -0.9221 H   0  0  0  0  0  0  0  0  0  0  0  0
   -4.2890    1.6214   -3.7166 H   0  0  0  0  0  0  0  0  0  0  0  0
   -4.0289    3.6433   -1.4417 H   0  0  0  0  0  0  0  0  0  0  0  0
   -5.2552    2.3913   -1.5686 H   0  0  0  0  0  0  0  0  0  0  0  0
   -6.3602    3.4533   -3.3548 H   0  0  0  0  0  0  0  0  0  0  0  0
   -5.8129    4.8141   -2.3852 H   0  0  0  0  0  0  0  0  0  0  0  0
   -5.1450    5.4375   -4.4211 H   0  0  0  0  0  0  0  0  0  0  0  0
   -3.0516    5.1566   -3.1749 H   0  0  0  0  0  0  0  0  0  0  0  0
   -2.8871    5.0311   -4.9205 H   0  0  0  0  0  0  0  0  0  0  0  0
   -1.7494    3.1928   -3.5372 H   0  0  0  0  0  0  0  0  0  0  0  0
   -2.6979    2.6774   -4.9161 H   0  0  0  0  0  0  0  0  0  0  0  0
  1  2  1  0
  2  3  1  0
  3  4  2  0
  4  5  1  0
  5  6  2  0
  6  7  1  0
  7  8  2  0
  8  9  1  0
  7 10  1  0
  4 11  1  0
  2 12  1  0
 12 13  1  0
 13 14  2  0
 14 15  1  0
 15 16  2  0
 16 17  1  0
 17 18  2  0
 18 19  1  0
 15 20  1  0
 20 21  1  0
 21 22  2  0
 22 23  1  0
 23 24  1  0
 23 25  1  0
 25 26  1  0
 26 27  1  0
 27 28  1  0
 28 29  1  0
 29 30  1  0
  8  3  1  0
 18 13  1  0
 24 20  2  0
 30 25  1  0
  1 31  1  0
  1 32  1  0
  1 33  1  0
  2 34  1  6
  5 35  1  0
  6 36  1  0
 14 37  1  0
 16 38  1  0
 19 39  1  0
 19 40  1  0
 21 41  1  0
 24 42  1  0
 25 43  1  0
 26 44  1  0
 26 45  1  0
 27 46  1  0
 27 47  1  0
 28 48  1  0
 29 49  1  0
 29 50  1  0
 30 51  1  0
 30 52  1  0
M  END
>  <energy_abs>  (53) 
39.613961964999724

>  <SMILES>  (53) 
C[C@H](c1c(ccc(c1Cl)F)Cl)Oc2cc(cnc2N)c3cnn(c3)C4CCNCC4

>  <cluster_no>  (53) 
53

>  <fda_drugs_id>  (53) 
KTEIFNKAUNYNJU-GFCCVEGCSA-N

>  <initial_conformation_id>  (53) 
262

>  <minimize_method>  (53) 
MMFF

$$$$

     RDKit          3D

 52 55  0  0  0  0  0  0  0  0999 V2000
    2.3701   -2.9868    0.0704 C   0  0  0  0  0  0  0  0  0  0  0  0
    2.9698   -1.6754    0.5846 C   0  0  2  0  0  0  0  0  0  0  0  0
    4.4619   -1.8503    0.8716 C   0  0  0  0  0  0  0  0  0  0  0  0
    4.9481   -2.4911    2.0361 C   0  0  0  0  0  0  0  0  0  0  0  0
    6.3250   -2.6291    2.2727 C   0  0  0  0  0  0  0  0  0  0  0  0
    7.2505   -2.1480    1.3547 C   0  0  0  0  0  0  0  0  0  0  0  0
    6.7966   -1.5401    0.1948 C   0  0  0  0  0  0  0  0  0  0  0  0
    5.4262   -1.3933   -0.0583 C   0  0  0  0  0  0  0  0  0  0  0  0
    4.9838   -0.6578   -1.5655 Cl  0  0  0  0  0  0  0  0  0  0  0  0
    7.7058   -1.1003   -0.6882 F   0  0  0  0  0  0  0  0  0  0  0  0
    3.9164   -3.1793    3.2463 Cl  0  0  0  0  0  0  0  0  0  0  0  0
    2.3148   -1.2307    1.7775 O   0  0  0  0  0  0  0  0  0  0  0  0
    1.0933   -0.6151    1.7198 C   0  0  0  0  0  0  0  0  0  0  0  0
    0.4084   -0.2463    0.5615 C   0  0  0  0  0  0  0  0  0  0  0  0
   -0.8365    0.3863    0.6575 C   0  0  0  0  0  0  0  0  0  0  0  0
   -1.3344    0.6160    1.9359 C   0  0  0  0  0  0  0  0  0  0  0  0
   -0.6967    0.2754    3.0797 N   0  0  0  0  0  0  0  0  0  0  0  0
    0.4974   -0.3300    2.9630 C   0  0  0  0  0  0  0  0  0  0  0  0
    1.1591   -0.6822    4.1565 N   0  0  0  0  0  0  0  0  0  0  0  0
   -1.5700    0.7731   -0.5331 C   0  0  0  0  0  0  0  0  0  0  0  0
   -1.5606    0.2352   -1.8407 C   0  0  0  0  0  0  0  0  0  0  0  0
   -2.3733    0.8866   -2.6750 N   0  0  0  0  0  0  0  0  0  0  0  0
   -2.9098    1.8541   -1.9082 N   0  0  0  0  0  0  0  0  0  0  0  0
   -2.4584    1.8259   -0.6162 C   0  0  0  0  0  0  0  0  0  0  0  0
   -3.8621    2.8073   -2.4721 C   0  0  0  0  0  0  0  0  0  0  0  0
   -3.1419    3.8635   -3.3225 C   0  0  0  0  0  0  0  0  0  0  0  0
   -4.1134    4.5097   -4.3016 C   0  0  0  0  0  0  0  0  0  0  0  0
   -4.6894    3.5520   -5.2431 N   0  0  0  0  0  0  0  0  0  0  0  0
   -4.7857    2.1817   -4.7378 C   0  0  0  0  0  0  0  0  0  0  0  0
   -5.0103    2.1215   -3.2316 C   0  0  0  0  0  0  0  0  0  0  0  0
    2.4014   -3.7756    0.8287 H   0  0  0  0  0  0  0  0  0  0  0  0
    1.3156   -2.8630   -0.1946 H   0  0  0  0  0  0  0  0  0  0  0  0
    2.9018   -3.3460   -0.8171 H   0  0  0  0  0  0  0  0  0  0  0  0
    2.8508   -0.8961   -0.1697 H   0  0  0  0  0  0  0  0  0  0  0  0
    6.6809   -3.1204    3.1768 H   0  0  0  0  0  0  0  0  0  0  0  0
    8.3171   -2.2520    1.5292 H   0  0  0  0  0  0  0  0  0  0  0  0
    0.8260   -0.4270   -0.4216 H   0  0  0  0  0  0  0  0  0  0  0  0
   -2.3000    1.0875    2.0965 H   0  0  0  0  0  0  0  0  0  0  0  0
    1.3504   -1.6809    4.1153 H   0  0  0  0  0  0  0  0  0  0  0  0
    2.0709   -0.2327    4.1424 H   0  0  0  0  0  0  0  0  0  0  0  0
   -0.9993   -0.6081   -2.2216 H   0  0  0  0  0  0  0  0  0  0  0  0
   -2.7937    2.5545    0.1090 H   0  0  0  0  0  0  0  0  0  0  0  0
   -4.3122    3.3109   -1.6052 H   0  0  0  0  0  0  0  0  0  0  0  0
   -2.3037    3.4236   -3.8792 H   0  0  0  0  0  0  0  0  0  0  0  0
   -2.7040    4.6272   -2.6680 H   0  0  0  0  0  0  0  0  0  0  0  0
   -4.9208    4.9979   -3.7415 H   0  0  0  0  0  0  0  0  0  0  0  0
   -3.6022    5.2950   -4.8684 H   0  0  0  0  0  0  0  0  0  0  0  0
   -5.6004    3.8825   -5.5597 H   0  0  0  0  0  0  0  0  0  0  0  0
   -5.6061    1.6712   -5.2547 H   0  0  0  0  0  0  0  0  0  0  0  0
   -3.8714    1.6400   -5.0064 H   0  0  0  0  0  0  0  0  0  0  0  0
   -5.9509    2.6387   -2.9980 H   0  0  0  0  0  0  0  0  0  0  0  0
   -5.1469    1.0824   -2.9092 H   0  0  0  0  0  0  0  0  0  0  0  0
  1  2  1  0
  2  3  1  0
  3  4  2  0
  4  5  1  0
  5  6  2  0
  6  7  1  0
  7  8  2  0
  8  9  1  0
  7 10  1  0
  4 11  1  0
  2 12  1  0
 12 13  1  0
 13 14  2  0
 14 15  1  0
 15 16  2  0
 16 17  1  0
 17 18  2  0
 18 19  1  0
 15 20  1  0
 20 21  1  0
 21 22  2  0
 22 23  1  0
 23 24  1  0
 23 25  1  0
 25 26  1  0
 26 27  1  0
 27 28  1  0
 28 29  1  0
 29 30  1  0
  8  3  1  0
 18 13  1  0
 24 20  2  0
 30 25  1  0
  1 31  1  0
  1 32  1  0
  1 33  1  0
  2 34  1  6
  5 35  1  0
  6 36  1  0
 14 37  1  0
 16 38  1  0
 19 39  1  0
 19 40  1  0
 21 41  1  0
 24 42  1  0
 25 43  1  0
 26 44  1  0
 26 45  1  0
 27 46  1  0
 27 47  1  0
 28 48  1  0
 29 49  1  0
 29 50  1  0
 30 51  1  0
 30 52  1  0
M  END
>  <energy_abs>  (54) 
39.53614003570953

>  <SMILES>  (54) 
C[C@H](c1c(ccc(c1Cl)F)Cl)Oc2cc(cnc2N)c3cnn(c3)C4CCNCC4

>  <cluster_no>  (54) 
54

>  <fda_drugs_id>  (54) 
KTEIFNKAUNYNJU-GFCCVEGCSA-N

>  <initial_conformation_id>  (54) 
260

>  <minimize_method>  (54) 
MMFF

$$$$

     RDKit          3D

 52 55  0  0  0  0  0  0  0  0999 V2000
    2.9339   -4.1839    1.9135 C   0  0  0  0  0  0  0  0  0  0  0  0
    2.4987   -2.8235    1.3573 C   0  0  2  0  0  0  0  0  0  0  0  0
    3.6659   -2.1013    0.6898 C   0  0  0  0  0  0  0  0  0  0  0  0
    3.7484   -2.0252   -0.7203 C   0  0  0  0  0  0  0  0  0  0  0  0
    4.7958   -1.3468   -1.3600 C   0  0  0  0  0  0  0  0  0  0  0  0
    5.7952   -0.7381   -0.6124 C   0  0  0  0  0  0  0  0  0  0  0  0
    5.7498   -0.8205    0.7713 C   0  0  0  0  0  0  0  0  0  0  0  0
    4.7098   -1.4944    1.4273 C   0  0  0  0  0  0  0  0  0  0  0  0
    4.8049   -1.5608    3.1550 Cl  0  0  0  0  0  0  0  0  0  0  0  0
    6.7404   -0.2444    1.4693 F   0  0  0  0  0  0  0  0  0  0  0  0
    2.5879   -2.7736   -1.7663 Cl  0  0  0  0  0  0  0  0  0  0  0  0
    1.9080   -2.0755    2.4314 O   0  0  0  0  0  0  0  0  0  0  0  0
    1.1964   -0.9394    2.1360 C   0  0  0  0  0  0  0  0  0  0  0  0
    0.5649   -0.6761    0.9189 C   0  0  0  0  0  0  0  0  0  0  0  0
   -0.1526    0.5121    0.7416 C   0  0  0  0  0  0  0  0  0  0  0  0
   -0.2077    1.3839    1.8241 C   0  0  0  0  0  0  0  0  0  0  0  0
    0.3721    1.1537    3.0261 N   0  0  0  0  0  0  0  0  0  0  0  0
    1.0544    0.0025    3.1672 C   0  0  0  0  0  0  0  0  0  0  0  0
    1.6872   -0.1720    4.3968 N   0  0  0  0  0  0  0  0  0  0  0  0
   -0.8036    0.8084   -0.5219 C   0  0  0  0  0  0  0  0  0  0  0  0
   -0.5335    0.3478   -1.8322 C   0  0  0  0  0  0  0  0  0  0  0  0
   -1.3752    0.8446   -2.7416 N   0  0  0  0  0  0  0  0  0  0  0  0
   -2.1973    1.6297   -2.0187 N   0  0  0  0  0  0  0  0  0  0  0  0
   -1.8943    1.6384   -0.6842 C   0  0  0  0  0  0  0  0  0  0  0  0
   -3.2809    2.3584   -2.6665 C   0  0  0  0  0  0  0  0  0  0  0  0
   -2.7526    3.4833   -3.5737 C   0  0  0  0  0  0  0  0  0  0  0  0
   -3.6504    3.7153   -4.7875 C   0  0  0  0  0  0  0  0  0  0  0  0
   -5.0522    3.5857   -4.4101 N   0  0  0  0  0  0  0  0  0  0  0  0
   -5.3978    2.2173   -4.0172 C   0  0  0  0  0  0  0  0  0  0  0  0
   -4.2305    1.4268   -3.4241 C   0  0  0  0  0  0  0  0  0  0  0  0
    3.6533   -4.0928    2.7319 H   0  0  0  0  0  0  0  0  0  0  0  0
    3.3787   -4.8106    1.1334 H   0  0  0  0  0  0  0  0  0  0  0  0
    2.0677   -4.7117    2.3289 H   0  0  0  0  0  0  0  0  0  0  0  0
    1.7038   -3.0634    0.6478 H   0  0  0  0  0  0  0  0  0  0  0  0
    4.8378   -1.2944   -2.4463 H   0  0  0  0  0  0  0  0  0  0  0  0
    6.6130   -0.2111   -1.0946 H   0  0  0  0  0  0  0  0  0  0  0  0
    0.5923   -1.3930    0.1084 H   0  0  0  0  0  0  0  0  0  0  0  0
   -0.7291    2.3352    1.7642 H   0  0  0  0  0  0  0  0  0  0  0  0
    1.5623   -1.1136    4.7489 H   0  0  0  0  0  0  0  0  0  0  0  0
    1.3732    0.5574    5.0267 H   0  0  0  0  0  0  0  0  0  0  0  0
    0.2449   -0.3266   -2.1650 H   0  0  0  0  0  0  0  0  0  0  0  0
   -2.4809    2.2173    0.0157 H   0  0  0  0  0  0  0  0  0  0  0  0
   -3.8538    2.8238   -1.8518 H   0  0  0  0  0  0  0  0  0  0  0  0
   -1.7348    3.2796   -3.9282 H   0  0  0  0  0  0  0  0  0  0  0  0
   -2.6855    4.4047   -2.9802 H   0  0  0  0  0  0  0  0  0  0  0  0
   -3.4041    3.0163   -5.5962 H   0  0  0  0  0  0  0  0  0  0  0  0
   -3.4688    4.7229   -5.1782 H   0  0  0  0  0  0  0  0  0  0  0  0
   -5.6534    3.8789   -5.1809 H   0  0  0  0  0  0  0  0  0  0  0  0
   -6.2100    2.2761   -3.2842 H   0  0  0  0  0  0  0  0  0  0  0  0
   -5.7928    1.6706   -4.8816 H   0  0  0  0  0  0  0  0  0  0  0  0
   -4.6136    0.6395   -2.7635 H   0  0  0  0  0  0  0  0  0  0  0  0
   -3.6899    0.9174   -4.2333 H   0  0  0  0  0  0  0  0  0  0  0  0
  1  2  1  0
  2  3  1  0
  3  4  2  0
  4  5  1  0
  5  6  2  0
  6  7  1  0
  7  8  2  0
  8  9  1  0
  7 10  1  0
  4 11  1  0
  2 12  1  0
 12 13  1  0
 13 14  2  0
 14 15  1  0
 15 16  2  0
 16 17  1  0
 17 18  2  0
 18 19  1  0
 15 20  1  0
 20 21  1  0
 21 22  2  0
 22 23  1  0
 23 24  1  0
 23 25  1  0
 25 26  1  0
 26 27  1  0
 27 28  1  0
 28 29  1  0
 29 30  1  0
  8  3  1  0
 18 13  1  0
 24 20  2  0
 30 25  1  0
  1 31  1  0
  1 32  1  0
  1 33  1  0
  2 34  1  6
  5 35  1  0
  6 36  1  0
 14 37  1  0
 16 38  1  0
 19 39  1  0
 19 40  1  0
 21 41  1  0
 24 42  1  0
 25 43  1  0
 26 44  1  0
 26 45  1  0
 27 46  1  0
 27 47  1  0
 28 48  1  0
 29 49  1  0
 29 50  1  0
 30 51  1  0
 30 52  1  0
M  END
>  <energy_abs>  (55) 
29.164077131292675

>  <SMILES>  (55) 
C[C@H](c1c(ccc(c1Cl)F)Cl)Oc2cc(cnc2N)c3cnn(c3)C4CCNCC4

>  <cluster_no>  (55) 
55

>  <fda_drugs_id>  (55) 
KTEIFNKAUNYNJU-GFCCVEGCSA-N

>  <initial_conformation_id>  (55) 
259

>  <minimize_method>  (55) 
MMFF

$$$$

     RDKit          3D

 52 55  0  0  0  0  0  0  0  0999 V2000
    2.3850   -2.9590    0.0652 C   0  0  0  0  0  0  0  0  0  0  0  0
    2.9991   -1.6626    0.5999 C   0  0  2  0  0  0  0  0  0  0  0  0
    4.4227   -1.9149    1.0986 C   0  0  0  0  0  0  0  0  0  0  0  0
    4.7016   -2.5186    2.3479 C   0  0  0  0  0  0  0  0  0  0  0  0
    6.0211   -2.7269    2.7797 C   0  0  0  0  0  0  0  0  0  0  0  0
    7.0935   -2.3554    1.9777 C   0  0  0  0  0  0  0  0  0  0  0  0
    6.8434   -1.7882    0.7383 C   0  0  0  0  0  0  0  0  0  0  0  0
    5.5333   -1.5718    0.2908 C   0  0  0  0  0  0  0  0  0  0  0  0
    5.3503   -0.8972   -1.2966 Cl  0  0  0  0  0  0  0  0  0  0  0  0
    7.8916   -1.4561   -0.0302 F   0  0  0  0  0  0  0  0  0  0  0  0
    3.4708   -3.0747    3.4332 Cl  0  0  0  0  0  0  0  0  0  0  0  0
    2.2199   -1.1148    1.6688 O   0  0  0  0  0  0  0  0  0  0  0  0
    1.0616   -0.4309    1.4132 C   0  0  0  0  0  0  0  0  0  0  0  0
    0.5767   -0.0697    0.1558 C   0  0  0  0  0  0  0  0  0  0  0  0
   -0.6302    0.6306    0.0477 C   0  0  0  0  0  0  0  0  0  0  0  0
   -1.2907    0.9444    1.2308 C   0  0  0  0  0  0  0  0  0  0  0  0
   -0.8491    0.6119    2.4657 N   0  0  0  0  0  0  0  0  0  0  0  0
    0.3091   -0.0651    2.5453 C   0  0  0  0  0  0  0  0  0  0  0  0
    0.7671   -0.4067    3.8336 N   0  0  0  0  0  0  0  0  0  0  0  0
   -1.1561    1.0133   -1.2490 C   0  0  0  0  0  0  0  0  0  0  0  0
   -0.5004    1.2942   -2.4659 C   0  0  0  0  0  0  0  0  0  0  0  0
   -1.3490    1.5769   -3.4549 N   0  0  0  0  0  0  0  0  0  0  0  0
   -2.5670    1.5116   -2.8743 N   0  0  0  0  0  0  0  0  0  0  0  0
   -2.4952    1.1428   -1.5583 C   0  0  0  0  0  0  0  0  0  0  0  0
   -3.7442    1.7482   -3.7115 C   0  0  0  0  0  0  0  0  0  0  0  0
   -5.1047    1.5547   -3.0194 C   0  0  0  0  0  0  0  0  0  0  0  0
   -5.4807    2.7367   -2.1254 C   0  0  0  0  0  0  0  0  0  0  0  0
   -5.4118    4.0100   -2.8369 N   0  0  0  0  0  0  0  0  0  0  0  0
   -4.0807    4.2372   -3.4002 C   0  0  0  0  0  0  0  0  0  0  0  0
   -3.7022    3.1328   -4.3809 C   0  0  0  0  0  0  0  0  0  0  0  0
    1.3887   -2.7823   -0.3519 H   0  0  0  0  0  0  0  0  0  0  0  0
    2.2552   -3.7058    0.8547 H   0  0  0  0  0  0  0  0  0  0  0  0
    3.0072   -3.3988   -0.7215 H   0  0  0  0  0  0  0  0  0  0  0  0
    3.0390   -0.9180   -0.1968 H   0  0  0  0  0  0  0  0  0  0  0  0
    6.2170   -3.1869    3.7468 H   0  0  0  0  0  0  0  0  0  0  0  0
    8.1169   -2.5143    2.3036 H   0  0  0  0  0  0  0  0  0  0  0  0
    1.1090   -0.3320   -0.7504 H   0  0  0  0  0  0  0  0  0  0  0  0
   -2.2233    1.5020    1.2335 H   0  0  0  0  0  0  0  0  0  0  0  0
    0.9099   -1.4142    3.8494 H   0  0  0  0  0  0  0  0  0  0  0  0
    1.6931   -0.0020    3.9440 H   0  0  0  0  0  0  0  0  0  0  0  0
    0.5611    1.3029   -2.6774 H   0  0  0  0  0  0  0  0  0  0  0  0
   -3.3788    0.9927   -0.9558 H   0  0  0  0  0  0  0  0  0  0  0  0
   -3.6635    0.9836   -4.4968 H   0  0  0  0  0  0  0  0  0  0  0  0
   -5.8747    1.4514   -3.7964 H   0  0  0  0  0  0  0  0  0  0  0  0
   -5.1303    0.6228   -2.4432 H   0  0  0  0  0  0  0  0  0  0  0  0
   -6.5028    2.5962   -1.7560 H   0  0  0  0  0  0  0  0  0  0  0  0
   -4.8413    2.7823   -1.2374 H   0  0  0  0  0  0  0  0  0  0  0  0
   -6.1054    4.0258   -3.5854 H   0  0  0  0  0  0  0  0  0  0  0  0
   -3.3398    4.3188   -2.5961 H   0  0  0  0  0  0  0  0  0  0  0  0
   -4.0812    5.2008   -3.9215 H   0  0  0  0  0  0  0  0  0  0  0  0
   -2.7162    3.3463   -4.8092 H   0  0  0  0  0  0  0  0  0  0  0  0
   -4.4097    3.1417   -5.2213 H   0  0  0  0  0  0  0  0  0  0  0  0
  1  2  1  0
  2  3  1  0
  3  4  2  0
  4  5  1  0
  5  6  2  0
  6  7  1  0
  7  8  2  0
  8  9  1  0
  7 10  1  0
  4 11  1  0
  2 12  1  0
 12 13  1  0
 13 14  2  0
 14 15  1  0
 15 16  2  0
 16 17  1  0
 17 18  2  0
 18 19  1  0
 15 20  1  0
 20 21  1  0
 21 22  2  0
 22 23  1  0
 23 24  1  0
 23 25  1  0
 25 26  1  0
 26 27  1  0
 27 28  1  0
 28 29  1  0
 29 30  1  0
  8  3  1  0
 18 13  1  0
 24 20  2  0
 30 25  1  0
  1 31  1  0
  1 32  1  0
  1 33  1  0
  2 34  1  6
  5 35  1  0
  6 36  1  0
 14 37  1  0
 16 38  1  0
 19 39  1  0
 19 40  1  0
 21 41  1  0
 24 42  1  0
 25 43  1  0
 26 44  1  0
 26 45  1  0
 27 46  1  0
 27 47  1  0
 28 48  1  0
 29 49  1  0
 29 50  1  0
 30 51  1  0
 30 52  1  0
M  END
>  <energy_abs>  (56) 
36.00786196056095

>  <SMILES>  (56) 
C[C@H](c1c(ccc(c1Cl)F)Cl)Oc2cc(cnc2N)c3cnn(c3)C4CCNCC4

>  <cluster_no>  (56) 
56

>  <fda_drugs_id>  (56) 
KTEIFNKAUNYNJU-GFCCVEGCSA-N

>  <initial_conformation_id>  (56) 
258

>  <minimize_method>  (56) 
MMFF

$$$$

     RDKit          3D

 52 55  0  0  0  0  0  0  0  0999 V2000
    3.0477   -3.0481    2.6721 C   0  0  0  0  0  0  0  0  0  0  0  0
    2.6339   -1.9416    1.6954 C   0  0  2  0  0  0  0  0  0  0  0  0
    3.6119   -1.8184    0.5301 C   0  0  0  0  0  0  0  0  0  0  0  0
    3.2577   -2.2841   -0.7571 C   0  0  0  0  0  0  0  0  0  0  0  0
    4.1398   -2.1871   -1.8459 C   0  0  0  0  0  0  0  0  0  0  0  0
    5.3996   -1.6280   -1.6802 C   0  0  0  0  0  0  0  0  0  0  0  0
    5.7738   -1.1726   -0.4258 C   0  0  0  0  0  0  0  0  0  0  0  0
    4.9048   -1.2620    0.6737 C   0  0  0  0  0  0  0  0  0  0  0  0
    5.5141   -0.6722    2.1848 Cl  0  0  0  0  0  0  0  0  0  0  0  0
    6.9995   -0.6441   -0.2871 F   0  0  0  0  0  0  0  0  0  0  0  0
    1.7263   -3.0164   -1.0965 Cl  0  0  0  0  0  0  0  0  0  0  0  0
    2.5468   -0.6997    2.4151 O   0  0  0  0  0  0  0  0  0  0  0  0
    1.2880   -0.1579    2.4669 C   0  0  0  0  0  0  0  0  0  0  0  0
    0.5520    0.1227    1.3144 C   0  0  0  0  0  0  0  0  0  0  0  0
   -0.7272    0.6703    1.4312 C   0  0  0  0  0  0  0  0  0  0  0  0
   -1.1917    0.9258    2.7196 C   0  0  0  0  0  0  0  0  0  0  0  0
   -0.4858    0.6944    3.8552 N   0  0  0  0  0  0  0  0  0  0  0  0
    0.7444    0.1681    3.7151 C   0  0  0  0  0  0  0  0  0  0  0  0
    1.4785    0.0153    4.8895 N   0  0  0  0  0  0  0  0  0  0  0  0
   -1.5487    0.9549    0.2716 C   0  0  0  0  0  0  0  0  0  0  0  0
   -2.9531    0.9436    0.1117 C   0  0  0  0  0  0  0  0  0  0  0  0
   -3.3357    1.2742   -1.1235 N   0  0  0  0  0  0  0  0  0  0  0  0
   -2.1754    1.5118   -1.7644 N   0  0  0  0  0  0  0  0  0  0  0  0
   -1.0768    1.3292   -0.9698 C   0  0  0  0  0  0  0  0  0  0  0  0
   -2.1773    1.9142   -3.1655 C   0  0  0  0  0  0  0  0  0  0  0  0
   -2.5618    0.7456   -4.0891 C   0  0  0  0  0  0  0  0  0  0  0  0
   -3.3119    1.2142   -5.3355 C   0  0  0  0  0  0  0  0  0  0  0  0
   -2.7563    2.4689   -5.8212 N   0  0  0  0  0  0  0  0  0  0  0  0
   -2.9691    3.5738   -4.8789 C   0  0  0  0  0  0  0  0  0  0  0  0
   -3.0635    3.1377   -3.4170 C   0  0  0  0  0  0  0  0  0  0  0  0
    2.3053   -3.1350    3.4811 H   0  0  0  0  0  0  0  0  0  0  0  0
    4.0088   -2.8436    3.1619 H   0  0  0  0  0  0  0  0  0  0  0  0
    3.1264   -4.0146    2.1602 H   0  0  0  0  0  0  0  0  0  0  0  0
    1.6389   -2.2281    1.3405 H   0  0  0  0  0  0  0  0  0  0  0  0
    3.8470   -2.5526   -2.8280 H   0  0  0  0  0  0  0  0  0  0  0  0
    6.0935   -1.5492   -2.5135 H   0  0  0  0  0  0  0  0  0  0  0  0
    0.9759   -0.0845    0.3380 H   0  0  0  0  0  0  0  0  0  0  0  0
   -2.1739    1.3591    2.8939 H   0  0  0  0  0  0  0  0  0  0  0  0
    0.8710    0.2152    5.6773 H   0  0  0  0  0  0  0  0  0  0  0  0
    1.9453   -0.8818    4.9371 H   0  0  0  0  0  0  0  0  0  0  0  0
   -3.7146    0.7002    0.8414 H   0  0  0  0  0  0  0  0  0  0  0  0
   -0.0775    1.4922   -1.3479 H   0  0  0  0  0  0  0  0  0  0  0  0
   -1.1409    2.2031   -3.3920 H   0  0  0  0  0  0  0  0  0  0  0  0
   -1.6455    0.2141   -4.3823 H   0  0  0  0  0  0  0  0  0  0  0  0
   -3.1855    0.0083   -3.5692 H   0  0  0  0  0  0  0  0  0  0  0  0
   -3.2206    0.4499   -6.1162 H   0  0  0  0  0  0  0  0  0  0  0  0
   -4.3846    1.3222   -5.1291 H   0  0  0  0  0  0  0  0  0  0  0  0
   -3.1697    2.7089   -6.7236 H   0  0  0  0  0  0  0  0  0  0  0  0
   -2.1373    4.2784   -4.9953 H   0  0  0  0  0  0  0  0  0  0  0  0
   -3.8843    4.1192   -5.1441 H   0  0  0  0  0  0  0  0  0  0  0  0
   -2.7741    3.9692   -2.7611 H   0  0  0  0  0  0  0  0  0  0  0  0
   -4.1100    2.9025   -3.1776 H   0  0  0  0  0  0  0  0  0  0  0  0
  1  2  1  0
  2  3  1  0
  3  4  2  0
  4  5  1  0
  5  6  2  0
  6  7  1  0
  7  8  2  0
  8  9  1  0
  7 10  1  0
  4 11  1  0
  2 12  1  0
 12 13  1  0
 13 14  2  0
 14 15  1  0
 15 16  2  0
 16 17  1  0
 17 18  2  0
 18 19  1  0
 15 20  1  0
 20 21  1  0
 21 22  2  0
 22 23  1  0
 23 24  1  0
 23 25  1  0
 25 26  1  0
 26 27  1  0
 27 28  1  0
 28 29  1  0
 29 30  1  0
  8  3  1  0
 18 13  1  0
 24 20  2  0
 30 25  1  0
  1 31  1  0
  1 32  1  0
  1 33  1  0
  2 34  1  6
  5 35  1  0
  6 36  1  0
 14 37  1  0
 16 38  1  0
 19 39  1  0
 19 40  1  0
 21 41  1  0
 24 42  1  0
 25 43  1  0
 26 44  1  0
 26 45  1  0
 27 46  1  0
 27 47  1  0
 28 48  1  0
 29 49  1  0
 29 50  1  0
 30 51  1  0
 30 52  1  0
M  END
>  <energy_abs>  (57) 
30.301555268184984

>  <SMILES>  (57) 
C[C@H](c1c(ccc(c1Cl)F)Cl)Oc2cc(cnc2N)c3cnn(c3)C4CCNCC4

>  <cluster_no>  (57) 
57

>  <fda_drugs_id>  (57) 
KTEIFNKAUNYNJU-GFCCVEGCSA-N

>  <initial_conformation_id>  (57) 
257

>  <minimize_method>  (57) 
MMFF

$$$$

     RDKit          3D

 52 55  0  0  0  0  0  0  0  0999 V2000
    2.1445   -2.7404    0.4355 C   0  0  0  0  0  0  0  0  0  0  0  0
    3.0716   -1.5186    0.4611 C   0  0  2  0  0  0  0  0  0  0  0  0
    4.5230   -1.9512    0.6695 C   0  0  0  0  0  0  0  0  0  0  0  0
    5.4231   -1.9825   -0.4241 C   0  0  0  0  0  0  0  0  0  0  0  0
    6.7621   -2.3687   -0.2629 C   0  0  0  0  0  0  0  0  0  0  0  0
    7.2367   -2.7464    0.9873 C   0  0  0  0  0  0  0  0  0  0  0  0
    6.3672   -2.7459    2.0700 C   0  0  0  0  0  0  0  0  0  0  0  0
    5.0253   -2.3622    1.9279 C   0  0  0  0  0  0  0  0  0  0  0  0
    4.0412   -2.4544    3.3555 Cl  0  0  0  0  0  0  0  0  0  0  0  0
    6.8435   -3.1364    3.2630 F   0  0  0  0  0  0  0  0  0  0  0  0
    4.9469   -1.5795   -2.0425 Cl  0  0  0  0  0  0  0  0  0  0  0  0
    2.7141   -0.5849    1.4891 O   0  0  0  0  0  0  0  0  0  0  0  0
    1.5225    0.0854    1.3922 C   0  0  0  0  0  0  0  0  0  0  0  0
    0.9059    0.4510    0.1945 C   0  0  0  0  0  0  0  0  0  0  0  0
   -0.3212    1.1219    0.2184 C   0  0  0  0  0  0  0  0  0  0  0  0
   -0.8648    1.4072    1.4674 C   0  0  0  0  0  0  0  0  0  0  0  0
   -0.2847    1.0863    2.6492 N   0  0  0  0  0  0  0  0  0  0  0  0
    0.8964    0.4424    2.5968 C   0  0  0  0  0  0  0  0  0  0  0  0
    1.5095    0.1993    3.8255 N   0  0  0  0  0  0  0  0  0  0  0  0
   -0.9783    1.5088   -1.0151 C   0  0  0  0  0  0  0  0  0  0  0  0
   -0.4415    1.8385   -2.2806 C   0  0  0  0  0  0  0  0  0  0  0  0
   -1.3816    2.1172   -3.1851 N   0  0  0  0  0  0  0  0  0  0  0  0
   -2.5347    1.9739   -2.5049 N   0  0  0  0  0  0  0  0  0  0  0  0
   -2.3423    1.6070   -1.1986 C   0  0  0  0  0  0  0  0  0  0  0  0
   -3.8032    2.1856   -3.1919 C   0  0  0  0  0  0  0  0  0  0  0  0
   -4.6810    0.9317   -3.1826 C   0  0  0  0  0  0  0  0  0  0  0  0
   -5.9434    1.1600   -4.0169 C   0  0  0  0  0  0  0  0  0  0  0  0
   -6.4222    2.5426   -3.9990 N   0  0  0  0  0  0  0  0  0  0  0  0
   -6.0823    3.2417   -2.7684 C   0  0  0  0  0  0  0  0  0  0  0  0
   -4.5673    3.4031   -2.6415 C   0  0  0  0  0  0  0  0  0  0  0  0
    1.1196   -2.4522    0.1782 H   0  0  0  0  0  0  0  0  0  0  0  0
    2.4795   -3.4776   -0.3021 H   0  0  0  0  0  0  0  0  0  0  0  0
    2.0847   -3.2333    1.4109 H   0  0  0  0  0  0  0  0  0  0  0  0
    2.9982   -1.0014   -0.4967 H   0  0  0  0  0  0  0  0  0  0  0  0
    7.4386   -2.3805   -1.1169 H   0  0  0  0  0  0  0  0  0  0  0  0
    8.2705   -3.0490    1.1248 H   0  0  0  0  0  0  0  0  0  0  0  0
    1.3669    0.2308   -0.7610 H   0  0  0  0  0  0  0  0  0  0  0  0
   -1.8066    1.9406    1.5696 H   0  0  0  0  0  0  0  0  0  0  0  0
    1.9086   -0.7311    3.8710 H   0  0  0  0  0  0  0  0  0  0  0  0
    0.8519    0.4146    4.5663 H   0  0  0  0  0  0  0  0  0  0  0  0
    0.5967    1.8902   -2.5826 H   0  0  0  0  0  0  0  0  0  0  0  0
   -3.1794    1.4414   -0.5348 H   0  0  0  0  0  0  0  0  0  0  0  0
   -3.5428    2.3998   -4.2393 H   0  0  0  0  0  0  0  0  0  0  0  0
   -4.9666    0.6830   -2.1526 H   0  0  0  0  0  0  0  0  0  0  0  0
   -4.1320    0.0662   -3.5710 H   0  0  0  0  0  0  0  0  0  0  0  0
   -6.7319    0.4873   -3.6585 H   0  0  0  0  0  0  0  0  0  0  0  0
   -5.7471    0.8867   -5.0601 H   0  0  0  0  0  0  0  0  0  0  0  0
   -7.4296    2.5608   -4.1586 H   0  0  0  0  0  0  0  0  0  0  0  0
   -6.5469    4.2335   -2.7692 H   0  0  0  0  0  0  0  0  0  0  0  0
   -6.4892    2.7064   -1.9020 H   0  0  0  0  0  0  0  0  0  0  0  0
   -4.3280    3.5915   -1.5875 H   0  0  0  0  0  0  0  0  0  0  0  0
   -4.2409    4.2971   -3.1893 H   0  0  0  0  0  0  0  0  0  0  0  0
  1  2  1  0
  2  3  1  0
  3  4  2  0
  4  5  1  0
  5  6  2  0
  6  7  1  0
  7  8  2  0
  8  9  1  0
  7 10  1  0
  4 11  1  0
  2 12  1  0
 12 13  1  0
 13 14  2  0
 14 15  1  0
 15 16  2  0
 16 17  1  0
 17 18  2  0
 18 19  1  0
 15 20  1  0
 20 21  1  0
 21 22  2  0
 22 23  1  0
 23 24  1  0
 23 25  1  0
 25 26  1  0
 26 27  1  0
 27 28  1  0
 28 29  1  0
 29 30  1  0
  8  3  1  0
 18 13  1  0
 24 20  2  0
 30 25  1  0
  1 31  1  0
  1 32  1  0
  1 33  1  0
  2 34  1  6
  5 35  1  0
  6 36  1  0
 14 37  1  0
 16 38  1  0
 19 39  1  0
 19 40  1  0
 21 41  1  0
 24 42  1  0
 25 43  1  0
 26 44  1  0
 26 45  1  0
 27 46  1  0
 27 47  1  0
 28 48  1  0
 29 49  1  0
 29 50  1  0
 30 51  1  0
 30 52  1  0
M  END
>  <energy_abs>  (58) 
32.03025037808721

>  <SMILES>  (58) 
C[C@H](c1c(ccc(c1Cl)F)Cl)Oc2cc(cnc2N)c3cnn(c3)C4CCNCC4

>  <cluster_no>  (58) 
58

>  <fda_drugs_id>  (58) 
KTEIFNKAUNYNJU-GFCCVEGCSA-N

>  <initial_conformation_id>  (58) 
256

>  <minimize_method>  (58) 
MMFF

$$$$

     RDKit          3D

 52 55  0  0  0  0  0  0  0  0999 V2000
    4.8941   -0.9744    3.1477 C   0  0  0  0  0  0  0  0  0  0  0  0
    3.5899   -1.0984    2.3545 C   0  0  2  0  0  0  0  0  0  0  0  0
    3.8535   -1.3755    0.8785 C   0  0  0  0  0  0  0  0  0  0  0  0
    3.6269   -2.6672    0.3426 C   0  0  0  0  0  0  0  0  0  0  0  0
    3.8302   -2.9436   -1.0190 C   0  0  0  0  0  0  0  0  0  0  0  0
    4.2679   -1.9467   -1.8792 C   0  0  0  0  0  0  0  0  0  0  0  0
    4.5149   -0.6775   -1.3736 C   0  0  0  0  0  0  0  0  0  0  0  0
    4.3194   -0.3820   -0.0153 C   0  0  0  0  0  0  0  0  0  0  0  0
    4.6543    1.2445    0.4801 Cl  0  0  0  0  0  0  0  0  0  0  0  0
    4.9263    0.2730   -2.2270 F   0  0  0  0  0  0  0  0  0  0  0  0
    3.0856   -3.9976    1.3089 Cl  0  0  0  0  0  0  0  0  0  0  0  0
    2.8252    0.1097    2.5691 O   0  0  0  0  0  0  0  0  0  0  0  0
    1.4743   -0.1175    2.4824 C   0  0  0  0  0  0  0  0  0  0  0  0
    0.8289    0.1527    1.2767 C   0  0  0  0  0  0  0  0  0  0  0  0
   -0.5494   -0.0292    1.1758 C   0  0  0  0  0  0  0  0  0  0  0  0
   -1.2048   -0.4770    2.3208 C   0  0  0  0  0  0  0  0  0  0  0  0
   -0.6035   -0.7196    3.5130 N   0  0  0  0  0  0  0  0  0  0  0  0
    0.7222   -0.5150    3.5943 C   0  0  0  0  0  0  0  0  0  0  0  0
    1.3210   -0.6829    4.8529 N   0  0  0  0  0  0  0  0  0  0  0  0
   -1.2759    0.2486   -0.0503 C   0  0  0  0  0  0  0  0  0  0  0  0
   -2.5551   -0.1692   -0.4851 C   0  0  0  0  0  0  0  0  0  0  0  0
   -2.8985    0.3528   -1.6648 N   0  0  0  0  0  0  0  0  0  0  0  0
   -1.8381    1.1092   -2.0013 N   0  0  0  0  0  0  0  0  0  0  0  0
   -0.8379    1.0736   -1.0664 C   0  0  0  0  0  0  0  0  0  0  0  0
   -1.8421    1.9160   -3.2199 C   0  0  0  0  0  0  0  0  0  0  0  0
   -2.5285    1.2295   -4.4156 C   0  0  0  0  0  0  0  0  0  0  0  0
   -3.9526    1.7445   -4.5963 C   0  0  0  0  0  0  0  0  0  0  0  0
   -4.0069    3.1880   -4.8455 N   0  0  0  0  0  0  0  0  0  0  0  0
   -2.9343    3.9543   -4.2157 C   0  0  0  0  0  0  0  0  0  0  0  0
   -2.4222    3.3095   -2.9334 C   0  0  0  0  0  0  0  0  0  0  0  0
    5.5288   -1.8590    3.0216 H   0  0  0  0  0  0  0  0  0  0  0  0
    4.6676   -0.8559    4.2162 H   0  0  0  0  0  0  0  0  0  0  0  0
    5.4707   -0.0873    2.8609 H   0  0  0  0  0  0  0  0  0  0  0  0
    3.0448   -1.9286    2.8141 H   0  0  0  0  0  0  0  0  0  0  0  0
    3.6314   -3.9404   -1.4141 H   0  0  0  0  0  0  0  0  0  0  0  0
    4.4148   -2.1449   -2.9369 H   0  0  0  0  0  0  0  0  0  0  0  0
    1.4096    0.5098    0.4335 H   0  0  0  0  0  0  0  0  0  0  0  0
   -2.2790   -0.6428    2.3375 H   0  0  0  0  0  0  0  0  0  0  0  0
    1.7716    0.1954    5.1013 H   0  0  0  0  0  0  0  0  0  0  0  0
    2.0464   -1.3858    4.7990 H   0  0  0  0  0  0  0  0  0  0  0  0
   -3.2577   -0.8265    0.0108 H   0  0  0  0  0  0  0  0  0  0  0  0
    0.0637    1.6577   -1.1938 H   0  0  0  0  0  0  0  0  0  0  0  0
   -0.7811    2.0248   -3.4872 H   0  0  0  0  0  0  0  0  0  0  0  0
   -1.9591    1.4501   -5.3298 H   0  0  0  0  0  0  0  0  0  0  0  0
   -2.5273    0.1372   -4.3157 H   0  0  0  0  0  0  0  0  0  0  0  0
   -4.5551    1.5177   -3.7066 H   0  0  0  0  0  0  0  0  0  0  0  0
   -4.4314    1.2221   -5.4333 H   0  0  0  0  0  0  0  0  0  0  0  0
   -4.0344    3.3805   -5.8476 H   0  0  0  0  0  0  0  0  0  0  0  0
   -3.3031    4.9623   -3.9988 H   0  0  0  0  0  0  0  0  0  0  0  0
   -2.1025    4.0668   -4.9236 H   0  0  0  0  0  0  0  0  0  0  0  0
   -1.6504    3.9428   -2.4785 H   0  0  0  0  0  0  0  0  0  0  0  0
   -3.2411    3.2558   -2.2020 H   0  0  0  0  0  0  0  0  0  0  0  0
  1  2  1  0
  2  3  1  0
  3  4  2  0
  4  5  1  0
  5  6  2  0
  6  7  1  0
  7  8  2  0
  8  9  1  0
  7 10  1  0
  4 11  1  0
  2 12  1  0
 12 13  1  0
 13 14  2  0
 14 15  1  0
 15 16  2  0
 16 17  1  0
 17 18  2  0
 18 19  1  0
 15 20  1  0
 20 21  1  0
 21 22  2  0
 22 23  1  0
 23 24  1  0
 23 25  1  0
 25 26  1  0
 26 27  1  0
 27 28  1  0
 28 29  1  0
 29 30  1  0
  8  3  1  0
 18 13  1  0
 24 20  2  0
 30 25  1  0
  1 31  1  0
  1 32  1  0
  1 33  1  0
  2 34  1  1
  5 35  1  0
  6 36  1  0
 14 37  1  0
 16 38  1  0
 19 39  1  0
 19 40  1  0
 21 41  1  0
 24 42  1  0
 25 43  1  0
 26 44  1  0
 26 45  1  0
 27 46  1  0
 27 47  1  0
 28 48  1  0
 29 49  1  0
 29 50  1  0
 30 51  1  0
 30 52  1  0
M  END
>  <energy_abs>  (59) 
40.21837339517353

>  <SMILES>  (59) 
C[C@H](c1c(ccc(c1Cl)F)Cl)Oc2cc(cnc2N)c3cnn(c3)C4CCNCC4

>  <cluster_no>  (59) 
59

>  <fda_drugs_id>  (59) 
KTEIFNKAUNYNJU-GFCCVEGCSA-N

>  <initial_conformation_id>  (59) 
255

>  <minimize_method>  (59) 
MMFF

$$$$

     RDKit          3D

 52 55  0  0  0  0  0  0  0  0999 V2000
    3.3524   -2.7017    3.8791 C   0  0  0  0  0  0  0  0  0  0  0  0
    2.8861   -2.4651    2.4406 C   0  0  2  0  0  0  0  0  0  0  0  0
    3.8565   -1.9772    1.3614 C   0  0  0  0  0  0  0  0  0  0  0  0
    3.5619   -2.2734    0.0029 C   0  0  0  0  0  0  0  0  0  0  0  0
    4.3702   -1.8266   -1.0506 C   0  0  0  0  0  0  0  0  0  0  0  0
    5.5101   -1.0883   -0.7891 C   0  0  0  0  0  0  0  0  0  0  0  0
    5.8398   -0.8089    0.5264 C   0  0  0  0  0  0  0  0  0  0  0  0
    5.0434   -1.2474    1.5979 C   0  0  0  0  0  0  0  0  0  0  0  0
    5.6687   -0.8687    3.1616 Cl  0  0  0  0  0  0  0  0  0  0  0  0
    6.9721   -0.1253    0.7477 F   0  0  0  0  0  0  0  0  0  0  0  0
    2.2117   -3.2533   -0.4774 Cl  0  0  0  0  0  0  0  0  0  0  0  0
    1.5716   -1.8491    2.5296 O   0  0  0  0  0  0  0  0  0  0  0  0
    1.3568   -0.6499    1.9130 C   0  0  0  0  0  0  0  0  0  0  0  0
    0.3844   -0.6357    0.9094 C   0  0  0  0  0  0  0  0  0  0  0  0
    0.0703    0.5574    0.2575 C   0  0  0  0  0  0  0  0  0  0  0  0
    0.7713    1.6915    0.6574 C   0  0  0  0  0  0  0  0  0  0  0  0
    1.6807    1.7217    1.6646 N   0  0  0  0  0  0  0  0  0  0  0  0
    1.9341    0.5604    2.2990 C   0  0  0  0  0  0  0  0  0  0  0  0
    2.7977    0.6585    3.3853 N   0  0  0  0  0  0  0  0  0  0  0  0
   -0.9285    0.6003   -0.7912 C   0  0  0  0  0  0  0  0  0  0  0  0
   -1.4026   -0.4037   -1.6669 C   0  0  0  0  0  0  0  0  0  0  0  0
   -2.3609    0.0366   -2.4901 N   0  0  0  0  0  0  0  0  0  0  0  0
   -2.5328    1.3184   -2.1199 N   0  0  0  0  0  0  0  0  0  0  0  0
   -1.7143    1.6949   -1.0882 C   0  0  0  0  0  0  0  0  0  0  0  0
   -3.5447    2.1469   -2.7646 C   0  0  0  0  0  0  0  0  0  0  0  0
   -4.9519    1.5583   -2.6182 C   0  0  0  0  0  0  0  0  0  0  0  0
   -5.9744    2.4370   -3.3303 C   0  0  0  0  0  0  0  0  0  0  0  0
   -5.6277    2.6549   -4.7359 N   0  0  0  0  0  0  0  0  0  0  0  0
   -4.3036    3.2584   -4.8855 C   0  0  0  0  0  0  0  0  0  0  0  0
   -3.2136    2.4117   -4.2365 C   0  0  0  0  0  0  0  0  0  0  0  0
    2.5939   -3.2919    4.4131 H   0  0  0  0  0  0  0  0  0  0  0  0
    4.2974   -3.2530    3.9249 H   0  0  0  0  0  0  0  0  0  0  0  0
    3.4350   -1.7718    4.4449 H   0  0  0  0  0  0  0  0  0  0  0  0
    2.6577   -3.4929    2.1335 H   0  0  0  0  0  0  0  0  0  0  0  0
    4.1174   -2.0689   -2.0824 H   0  0  0  0  0  0  0  0  0  0  0  0
    6.1517   -0.7412   -1.5919 H   0  0  0  0  0  0  0  0  0  0  0  0
   -0.1259   -1.5643    0.6534 H   0  0  0  0  0  0  0  0  0  0  0  0
    0.6251    2.6493    0.1709 H   0  0  0  0  0  0  0  0  0  0  0  0
    3.0097    1.6469    3.5090 H   0  0  0  0  0  0  0  0  0  0  0  0
    2.3731    0.2535    4.2164 H   0  0  0  0  0  0  0  0  0  0  0  0
   -1.0976   -1.4353   -1.7395 H   0  0  0  0  0  0  0  0  0  0  0  0
   -1.7545    2.6911   -0.6771 H   0  0  0  0  0  0  0  0  0  0  0  0
   -3.5250    3.1092   -2.2357 H   0  0  0  0  0  0  0  0  0  0  0  0
   -4.9933    0.5428   -3.0334 H   0  0  0  0  0  0  0  0  0  0  0  0
   -5.2130    1.4722   -1.5569 H   0  0  0  0  0  0  0  0  0  0  0  0
   -6.9614    1.9635   -3.2790 H   0  0  0  0  0  0  0  0  0  0  0  0
   -6.0664    3.4024   -2.8184 H   0  0  0  0  0  0  0  0  0  0  0  0
   -5.6452    1.7570   -5.2240 H   0  0  0  0  0  0  0  0  0  0  0  0
   -4.3061    4.2684   -4.4542 H   0  0  0  0  0  0  0  0  0  0  0  0
   -4.0929    3.3750   -5.9549 H   0  0  0  0  0  0  0  0  0  0  0  0
   -2.2492    2.9329   -4.3166 H   0  0  0  0  0  0  0  0  0  0  0  0
   -3.1061    1.4677   -4.7874 H   0  0  0  0  0  0  0  0  0  0  0  0
  1  2  1  0
  2  3  1  0
  3  4  2  0
  4  5  1  0
  5  6  2  0
  6  7  1  0
  7  8  2  0
  8  9  1  0
  7 10  1  0
  4 11  1  0
  2 12  1  0
 12 13  1  0
 13 14  2  0
 14 15  1  0
 15 16  2  0
 16 17  1  0
 17 18  2  0
 18 19  1  0
 15 20  1  0
 20 21  1  0
 21 22  2  0
 22 23  1  0
 23 24  1  0
 23 25  1  0
 25 26  1  0
 26 27  1  0
 27 28  1  0
 28 29  1  0
 29 30  1  0
  8  3  1  0
 18 13  1  0
 24 20  2  0
 30 25  1  0
  1 31  1  0
  1 32  1  0
  1 33  1  0
  2 34  1  6
  5 35  1  0
  6 36  1  0
 14 37  1  0
 16 38  1  0
 19 39  1  0
 19 40  1  0
 21 41  1  0
 24 42  1  0
 25 43  1  0
 26 44  1  0
 26 45  1  0
 27 46  1  0
 27 47  1  0
 28 48  1  0
 29 49  1  0
 29 50  1  0
 30 51  1  0
 30 52  1  0
M  END
>  <energy_abs>  (60) 
35.57246438113631

>  <SMILES>  (60) 
C[C@H](c1c(ccc(c1Cl)F)Cl)Oc2cc(cnc2N)c3cnn(c3)C4CCNCC4

>  <cluster_no>  (60) 
60

>  <fda_drugs_id>  (60) 
KTEIFNKAUNYNJU-GFCCVEGCSA-N

>  <initial_conformation_id>  (60) 
254

>  <minimize_method>  (60) 
MMFF

$$$$

     RDKit          3D

 52 55  0  0  0  0  0  0  0  0999 V2000
    3.7258    0.9166    0.7968 C   0  0  0  0  0  0  0  0  0  0  0  0
    3.5413   -0.4207    1.5238 C   0  0  2  0  0  0  0  0  0  0  0  0
    4.7221   -1.3553    1.2695 C   0  0  0  0  0  0  0  0  0  0  0  0
    5.6557   -1.6476    2.2940 C   0  0  0  0  0  0  0  0  0  0  0  0
    6.7307   -2.5155    2.0705 C   0  0  0  0  0  0  0  0  0  0  0  0
    6.9103   -3.1136    0.8278 C   0  0  0  0  0  0  0  0  0  0  0  0
    6.0146   -2.8363   -0.1932 C   0  0  0  0  0  0  0  0  0  0  0  0
    4.9302   -1.9723    0.0064 C   0  0  0  0  0  0  0  0  0  0  0  0
    3.8811   -1.7241   -1.3537 Cl  0  0  0  0  0  0  0  0  0  0  0  0
    6.1953   -3.4347   -1.3764 F   0  0  0  0  0  0  0  0  0  0  0  0
    5.5303   -0.9888    3.8947 Cl  0  0  0  0  0  0  0  0  0  0  0  0
    2.3473   -1.1421    1.1724 O   0  0  0  0  0  0  0  0  0  0  0  0
    1.1823   -0.4773    1.4413 C   0  0  0  0  0  0  0  0  0  0  0  0
    0.5089    0.0992    0.3570 C   0  0  0  0  0  0  0  0  0  0  0  0
   -0.7249    0.7164    0.5560 C   0  0  0  0  0  0  0  0  0  0  0  0
   -1.2175    0.7121    1.8598 C   0  0  0  0  0  0  0  0  0  0  0  0
   -0.5931    0.1367    2.9248 N   0  0  0  0  0  0  0  0  0  0  0  0
    0.5803   -0.4789    2.7055 C   0  0  0  0  0  0  0  0  0  0  0  0
    1.1603   -1.1396    3.7975 N   0  0  0  0  0  0  0  0  0  0  0  0
   -1.4468    1.3146   -0.5517 C   0  0  0  0  0  0  0  0  0  0  0  0
   -0.9818    1.8095   -1.7865 C   0  0  0  0  0  0  0  0  0  0  0  0
   -1.9638    2.2623   -2.5624 N   0  0  0  0  0  0  0  0  0  0  0  0
   -3.0761    2.0504   -1.8450 N   0  0  0  0  0  0  0  0  0  0  0  0
   -2.8129    1.4961   -0.6199 C   0  0  0  0  0  0  0  0  0  0  0  0
   -4.3965    2.4056   -2.3517 C   0  0  0  0  0  0  0  0  0  0  0  0
   -5.1472    1.1797   -2.8817 C   0  0  0  0  0  0  0  0  0  0  0  0
   -4.7024    0.7934   -4.2858 C   0  0  0  0  0  0  0  0  0  0  0  0
   -4.8484    1.9100   -5.2122 N   0  0  0  0  0  0  0  0  0  0  0  0
   -4.0244    3.0428   -4.7945 C   0  0  0  0  0  0  0  0  0  0  0  0
   -4.3958    3.5339   -3.3944 C   0  0  0  0  0  0  0  0  0  0  0  0
    3.6133    0.8346   -0.2902 H   0  0  0  0  0  0  0  0  0  0  0  0
    4.7170    1.3378    1.0113 H   0  0  0  0  0  0  0  0  0  0  0  0
    2.9779    1.6457    1.1322 H   0  0  0  0  0  0  0  0  0  0  0  0
    3.4748   -0.1874    2.5871 H   0  0  0  0  0  0  0  0  0  0  0  0
    7.4254   -2.7371    2.8713 H   0  0  0  0  0  0  0  0  0  0  0  0
    7.7346   -3.7942    0.6477 H   0  0  0  0  0  0  0  0  0  0  0  0
    0.9500    0.0347   -0.6341 H   0  0  0  0  0  0  0  0  0  0  0  0
   -2.1631    1.1805    2.1129 H   0  0  0  0  0  0  0  0  0  0  0  0
    2.0482   -0.7120    4.0442 H   0  0  0  0  0  0  0  0  0  0  0  0
    1.3419   -2.1033    3.5277 H   0  0  0  0  0  0  0  0  0  0  0  0
    0.0337    1.8642   -2.1542 H   0  0  0  0  0  0  0  0  0  0  0  0
   -3.6119    1.2676    0.0668 H   0  0  0  0  0  0  0  0  0  0  0  0
   -4.9298    2.7799   -1.4662 H   0  0  0  0  0  0  0  0  0  0  0  0
   -5.0335    0.3287   -2.2121 H   0  0  0  0  0  0  0  0  0  0  0  0
   -6.2151    1.4109   -2.9051 H   0  0  0  0  0  0  0  0  0  0  0  0
   -5.3124   -0.0428   -4.6446 H   0  0  0  0  0  0  0  0  0  0  0  0
   -3.6710    0.4393   -4.2758 H   0  0  0  0  0  0  0  0  0  0  0  0
   -5.8251    2.1966   -5.2773 H   0  0  0  0  0  0  0  0  0  0  0  0
   -4.1602    3.8639   -5.5118 H   0  0  0  0  0  0  0  0  0  0  0  0
   -2.9643    2.7692   -4.8549 H   0  0  0  0  0  0  0  0  0  0  0  0
   -5.4024    3.9667   -3.4333 H   0  0  0  0  0  0  0  0  0  0  0  0
   -3.7236    4.3445   -3.0950 H   0  0  0  0  0  0  0  0  0  0  0  0
  1  2  1  0
  2  3  1  0
  3  4  2  0
  4  5  1  0
  5  6  2  0
  6  7  1  0
  7  8  2  0
  8  9  1  0
  7 10  1  0
  4 11  1  0
  2 12  1  0
 12 13  1  0
 13 14  2  0
 14 15  1  0
 15 16  2  0
 16 17  1  0
 17 18  2  0
 18 19  1  0
 15 20  1  0
 20 21  1  0
 21 22  2  0
 22 23  1  0
 23 24  1  0
 23 25  1  0
 25 26  1  0
 26 27  1  0
 27 28  1  0
 28 29  1  0
 29 30  1  0
  8  3  1  0
 18 13  1  0
 24 20  2  0
 30 25  1  0
  1 31  1  0
  1 32  1  0
  1 33  1  0
  2 34  1  1
  5 35  1  0
  6 36  1  0
 14 37  1  0
 16 38  1  0
 19 39  1  0
 19 40  1  0
 21 41  1  0
 24 42  1  0
 25 43  1  0
 26 44  1  0
 26 45  1  0
 27 46  1  0
 27 47  1  0
 28 48  1  0
 29 49  1  0
 29 50  1  0
 30 51  1  0
 30 52  1  0
M  END
>  <energy_abs>  (61) 
38.00812497934791

>  <SMILES>  (61) 
C[C@H](c1c(ccc(c1Cl)F)Cl)Oc2cc(cnc2N)c3cnn(c3)C4CCNCC4

>  <cluster_no>  (61) 
61

>  <fda_drugs_id>  (61) 
KTEIFNKAUNYNJU-GFCCVEGCSA-N

>  <initial_conformation_id>  (61) 
253

>  <minimize_method>  (61) 
MMFF

$$$$

     RDKit          3D

 52 55  0  0  0  0  0  0  0  0999 V2000
    4.6717   -0.6474    3.5113 C   0  0  0  0  0  0  0  0  0  0  0  0
    3.5101   -0.7175    2.5168 C   0  0  2  0  0  0  0  0  0  0  0  0
    3.9004   -1.4798    1.2518 C   0  0  0  0  0  0  0  0  0  0  0  0
    3.4348   -2.7990    1.0407 C   0  0  0  0  0  0  0  0  0  0  0  0
    3.7627   -3.5170   -0.1187 C   0  0  0  0  0  0  0  0  0  0  0  0
    4.5696   -2.9446   -1.0932 C   0  0  0  0  0  0  0  0  0  0  0  0
    5.0532   -1.6592   -0.8999 C   0  0  0  0  0  0  0  0  0  0  0  0
    4.7352   -0.9264    0.2528 C   0  0  0  0  0  0  0  0  0  0  0  0
    5.4214    0.6606    0.3697 Cl  0  0  0  0  0  0  0  0  0  0  0  0
    5.8392   -1.1311   -1.8509 F   0  0  0  0  0  0  0  0  0  0  0  0
    2.4474   -3.6387    2.1887 Cl  0  0  0  0  0  0  0  0  0  0  0  0
    3.0882    0.6305    2.2185 O   0  0  0  0  0  0  0  0  0  0  0  0
    1.7378    0.7009    1.9908 C   0  0  0  0  0  0  0  0  0  0  0  0
    1.2936    0.8365    0.6773 C   0  0  0  0  0  0  0  0  0  0  0  0
   -0.0751    0.9215    0.4218 C   0  0  0  0  0  0  0  0  0  0  0  0
   -0.9242    0.8811    1.5271 C   0  0  0  0  0  0  0  0  0  0  0  0
   -0.5146    0.7856    2.8194 N   0  0  0  0  0  0  0  0  0  0  0  0
    0.8089    0.7144    3.0352 C   0  0  0  0  0  0  0  0  0  0  0  0
    1.2112    0.6194    4.3689 N   0  0  0  0  0  0  0  0  0  0  0  0
   -0.5756    1.0290   -0.9356 C   0  0  0  0  0  0  0  0  0  0  0  0
    0.0023    0.6428   -2.1639 C   0  0  0  0  0  0  0  0  0  0  0  0
   -0.7731    0.9270   -3.2109 N   0  0  0  0  0  0  0  0  0  0  0  0
   -1.8719    1.4908   -2.6641 N   0  0  0  0  0  0  0  0  0  0  0  0
   -1.7795    1.5962   -1.3029 C   0  0  0  0  0  0  0  0  0  0  0  0
   -2.9287    1.9517   -3.5656 C   0  0  0  0  0  0  0  0  0  0  0  0
   -3.5218    0.7946   -4.3869 C   0  0  0  0  0  0  0  0  0  0  0  0
   -4.5047   -0.0288   -3.5621 C   0  0  0  0  0  0  0  0  0  0  0  0
   -5.5898    0.8063   -3.0465 N   0  0  0  0  0  0  0  0  0  0  0  0
   -5.0812    1.8742   -2.1909 C   0  0  0  0  0  0  0  0  0  0  0  0
   -4.0626    2.7594   -2.9101 C   0  0  0  0  0  0  0  0  0  0  0  0
    5.0323   -1.6473    3.7746 H   0  0  0  0  0  0  0  0  0  0  0  0
    5.5167   -0.0689    3.1263 H   0  0  0  0  0  0  0  0  0  0  0  0
    4.3489   -0.1422    4.4290 H   0  0  0  0  0  0  0  0  0  0  0  0
    2.7011   -1.2328    3.0429 H   0  0  0  0  0  0  0  0  0  0  0  0
    3.3895   -4.5296   -0.2634 H   0  0  0  0  0  0  0  0  0  0  0  0
    4.8297   -3.4898   -1.9954 H   0  0  0  0  0  0  0  0  0  0  0  0
    2.0221    0.8797   -0.1263 H   0  0  0  0  0  0  0  0  0  0  0  0
   -2.0045    0.9176    1.4138 H   0  0  0  0  0  0  0  0  0  0  0  0
    0.3771    0.7295    4.9396 H   0  0  0  0  0  0  0  0  0  0  0  0
    1.9172    1.3196    4.5730 H   0  0  0  0  0  0  0  0  0  0  0  0
    0.9568    0.1644   -2.3425 H   0  0  0  0  0  0  0  0  0  0  0  0
   -2.5513    2.0653   -0.7118 H   0  0  0  0  0  0  0  0  0  0  0  0
   -2.4047    2.6285   -4.2556 H   0  0  0  0  0  0  0  0  0  0  0  0
   -2.7389    0.1384   -4.7850 H   0  0  0  0  0  0  0  0  0  0  0  0
   -4.0459    1.2106   -5.2580 H   0  0  0  0  0  0  0  0  0  0  0  0
   -3.9942   -0.5372   -2.7354 H   0  0  0  0  0  0  0  0  0  0  0  0
   -4.9370   -0.8148   -4.1914 H   0  0  0  0  0  0  0  0  0  0  0  0
   -6.1107    1.2072   -3.8274 H   0  0  0  0  0  0  0  0  0  0  0  0
   -4.6576    1.4371   -1.2812 H   0  0  0  0  0  0  0  0  0  0  0  0
   -5.9248    2.4925   -1.8635 H   0  0  0  0  0  0  0  0  0  0  0  0
   -4.5882    3.3148   -3.6993 H   0  0  0  0  0  0  0  0  0  0  0  0
   -3.6661    3.5140   -2.2207 H   0  0  0  0  0  0  0  0  0  0  0  0
  1  2  1  0
  2  3  1  0
  3  4  2  0
  4  5  1  0
  5  6  2  0
  6  7  1  0
  7  8  2  0
  8  9  1  0
  7 10  1  0
  4 11  1  0
  2 12  1  0
 12 13  1  0
 13 14  2  0
 14 15  1  0
 15 16  2  0
 16 17  1  0
 17 18  2  0
 18 19  1  0
 15 20  1  0
 20 21  1  0
 21 22  2  0
 22 23  1  0
 23 24  1  0
 23 25  1  0
 25 26  1  0
 26 27  1  0
 27 28  1  0
 28 29  1  0
 29 30  1  0
  8  3  1  0
 18 13  1  0
 24 20  2  0
 30 25  1  0
  1 31  1  0
  1 32  1  0
  1 33  1  0
  2 34  1  1
  5 35  1  0
  6 36  1  0
 14 37  1  0
 16 38  1  0
 19 39  1  0
 19 40  1  0
 21 41  1  0
 24 42  1  0
 25 43  1  0
 26 44  1  0
 26 45  1  0
 27 46  1  0
 27 47  1  0
 28 48  1  0
 29 49  1  0
 29 50  1  0
 30 51  1  0
 30 52  1  0
M  END
>  <energy_abs>  (62) 
24.764655700922546

>  <SMILES>  (62) 
C[C@H](c1c(ccc(c1Cl)F)Cl)Oc2cc(cnc2N)c3cnn(c3)C4CCNCC4

>  <cluster_no>  (62) 
62

>  <fda_drugs_id>  (62) 
KTEIFNKAUNYNJU-GFCCVEGCSA-N

>  <initial_conformation_id>  (62) 
252

>  <minimize_method>  (62) 
MMFF

$$$$

     RDKit          3D

 52 55  0  0  0  0  0  0  0  0999 V2000
    1.6647   -2.1956    1.4651 C   0  0  0  0  0  0  0  0  0  0  0  0
    2.6971   -1.3059    0.7679 C   0  0  2  0  0  0  0  0  0  0  0  0
    4.0558   -2.0058    0.7165 C   0  0  0  0  0  0  0  0  0  0  0  0
    4.4811   -2.6487   -0.4711 C   0  0  0  0  0  0  0  0  0  0  0  0
    5.7258   -3.2894   -0.5552 C   0  0  0  0  0  0  0  0  0  0  0  0
    6.5736   -3.3194    0.5444 C   0  0  0  0  0  0  0  0  0  0  0  0
    6.1672   -2.7209    1.7280 C   0  0  0  0  0  0  0  0  0  0  0  0
    4.9262   -2.0753    1.8305 C   0  0  0  0  0  0  0  0  0  0  0  0
    4.5297   -1.4103    3.3821 Cl  0  0  0  0  0  0  0  0  0  0  0  0
    6.9944   -2.7829    2.7824 F   0  0  0  0  0  0  0  0  0  0  0  0
    3.4974   -2.7244   -1.8958 Cl  0  0  0  0  0  0  0  0  0  0  0  0
    2.8419   -0.0488    1.4371 O   0  0  0  0  0  0  0  0  0  0  0  0
    1.9265    0.9528    1.2541 C   0  0  0  0  0  0  0  0  0  0  0  0
    0.8436    0.9306    0.3746 C   0  0  0  0  0  0  0  0  0  0  0  0
   -0.0072    2.0384    0.2865 C   0  0  0  0  0  0  0  0  0  0  0  0
    0.2831    3.1294    1.0988 C   0  0  0  0  0  0  0  0  0  0  0  0
    1.3235    3.1851    1.9613 N   0  0  0  0  0  0  0  0  0  0  0  0
    2.1259    2.1089    2.0321 C   0  0  0  0  0  0  0  0  0  0  0  0
    3.2100    2.1741    2.9296 N   0  0  0  0  0  0  0  0  0  0  0  0
   -1.1386    2.0658   -0.6205 C   0  0  0  0  0  0  0  0  0  0  0  0
   -1.7621    3.1475   -1.2849 C   0  0  0  0  0  0  0  0  0  0  0  0
   -2.7961    2.7645   -2.0371 N   0  0  0  0  0  0  0  0  0  0  0  0
   -2.8500    1.4322   -1.8526 N   0  0  0  0  0  0  0  0  0  0  0  0
   -1.8756    0.9665   -1.0123 C   0  0  0  0  0  0  0  0  0  0  0  0
   -3.8724    0.6360   -2.5200 C   0  0  0  0  0  0  0  0  0  0  0  0
   -3.7083    0.6634   -4.0434 C   0  0  0  0  0  0  0  0  0  0  0  0
   -4.8125   -0.1473   -4.7131 C   0  0  0  0  0  0  0  0  0  0  0  0
   -6.1437    0.3096   -4.3141 N   0  0  0  0  0  0  0  0  0  0  0  0
   -6.3281    0.2376   -2.8647 C   0  0  0  0  0  0  0  0  0  0  0  0
   -5.2880    1.0649   -2.1174 C   0  0  0  0  0  0  0  0  0  0  0  0
    1.9134   -2.3619    2.5179 H   0  0  0  0  0  0  0  0  0  0  0  0
    1.5858   -3.1719    0.9751 H   0  0  0  0  0  0  0  0  0  0  0  0
    0.6732   -1.7320    1.4574 H   0  0  0  0  0  0  0  0  0  0  0  0
    2.3760   -1.1032   -0.2549 H   0  0  0  0  0  0  0  0  0  0  0  0
    6.0361   -3.7733   -1.4796 H   0  0  0  0  0  0  0  0  0  0  0  0
    7.5394   -3.8131    0.4929 H   0  0  0  0  0  0  0  0  0  0  0  0
    0.6492    0.0748   -0.2599 H   0  0  0  0  0  0  0  0  0  0  0  0
   -0.3331    4.0248    1.0958 H   0  0  0  0  0  0  0  0  0  0  0  0
    4.0610    2.0207    2.3943 H   0  0  0  0  0  0  0  0  0  0  0  0
    3.1382    1.3753    3.5567 H   0  0  0  0  0  0  0  0  0  0  0  0
   -1.5023    4.1985   -1.2591 H   0  0  0  0  0  0  0  0  0  0  0  0
   -1.8047   -0.0831   -0.7633 H   0  0  0  0  0  0  0  0  0  0  0  0
   -3.7206   -0.3977   -2.1789 H   0  0  0  0  0  0  0  0  0  0  0  0
   -3.7374    1.6961   -4.4157 H   0  0  0  0  0  0  0  0  0  0  0  0
   -2.7291    0.2573   -4.3256 H   0  0  0  0  0  0  0  0  0  0  0  0
   -4.7006   -1.2124   -4.4753 H   0  0  0  0  0  0  0  0  0  0  0  0
   -4.7198   -0.0602   -5.8013 H   0  0  0  0  0  0  0  0  0  0  0  0
   -6.2703    1.2771   -4.6190 H   0  0  0  0  0  0  0  0  0  0  0  0
   -6.2886   -0.8088   -2.5384 H   0  0  0  0  0  0  0  0  0  0  0  0
   -7.3310    0.6028   -2.6174 H   0  0  0  0  0  0  0  0  0  0  0  0
   -5.4264    0.9437   -1.0361 H   0  0  0  0  0  0  0  0  0  0  0  0
   -5.4455    2.1293   -2.3358 H   0  0  0  0  0  0  0  0  0  0  0  0
  1  2  1  0
  2  3  1  0
  3  4  2  0
  4  5  1  0
  5  6  2  0
  6  7  1  0
  7  8  2  0
  8  9  1  0
  7 10  1  0
  4 11  1  0
  2 12  1  0
 12 13  1  0
 13 14  2  0
 14 15  1  0
 15 16  2  0
 16 17  1  0
 17 18  2  0
 18 19  1  0
 15 20  1  0
 20 21  1  0
 21 22  2  0
 22 23  1  0
 23 24  1  0
 23 25  1  0
 25 26  1  0
 26 27  1  0
 27 28  1  0
 28 29  1  0
 29 30  1  0
  8  3  1  0
 18 13  1  0
 24 20  2  0
 30 25  1  0
  1 31  1  0
  1 32  1  0
  1 33  1  0
  2 34  1  6
  5 35  1  0
  6 36  1  0
 14 37  1  0
 16 38  1  0
 19 39  1  0
 19 40  1  0
 21 41  1  0
 24 42  1  0
 25 43  1  0
 26 44  1  0
 26 45  1  0
 27 46  1  0
 27 47  1  0
 28 48  1  0
 29 49  1  0
 29 50  1  0
 30 51  1  0
 30 52  1  0
M  END
>  <energy_abs>  (63) 
34.12867052606368

>  <SMILES>  (63) 
C[C@H](c1c(ccc(c1Cl)F)Cl)Oc2cc(cnc2N)c3cnn(c3)C4CCNCC4

>  <cluster_no>  (63) 
63

>  <fda_drugs_id>  (63) 
KTEIFNKAUNYNJU-GFCCVEGCSA-N

>  <initial_conformation_id>  (63) 
250

>  <minimize_method>  (63) 
MMFF

$$$$

     RDKit          3D

 52 55  0  0  0  0  0  0  0  0999 V2000
    2.2877   -2.8330    3.2354 C   0  0  0  0  0  0  0  0  0  0  0  0
    2.1822   -1.7640    2.1391 C   0  0  2  0  0  0  0  0  0  0  0  0
    3.3501   -1.8482    1.1502 C   0  0  0  0  0  0  0  0  0  0  0  0
    3.1375   -2.2937   -0.1794 C   0  0  0  0  0  0  0  0  0  0  0  0
    4.2003   -2.4131   -1.0942 C   0  0  0  0  0  0  0  0  0  0  0  0
    5.4984   -2.0658   -0.7204 C   0  0  0  0  0  0  0  0  0  0  0  0
    5.7311   -1.6224    0.5767 C   0  0  0  0  0  0  0  0  0  0  0  0
    4.6828   -1.5085    1.5077 C   0  0  0  0  0  0  0  0  0  0  0  0
    5.1223   -0.9284    3.0811 Cl  0  0  0  0  0  0  0  0  0  0  0  0
    6.9906   -1.2951    0.9149 F   0  0  0  0  0  0  0  0  0  0  0  0
    1.5755   -2.7491   -0.7779 Cl  0  0  0  0  0  0  0  0  0  0  0  0
    2.0775   -0.4765    2.7708 O   0  0  0  0  0  0  0  0  0  0  0  0
    1.6697    0.5603    1.9623 C   0  0  0  0  0  0  0  0  0  0  0  0
    0.5990    0.4697    1.0672 C   0  0  0  0  0  0  0  0  0  0  0  0
    0.2500    1.5655    0.2703 C   0  0  0  0  0  0  0  0  0  0  0  0
    1.0055    2.7215    0.4397 C   0  0  0  0  0  0  0  0  0  0  0  0
    2.0224    2.8571    1.3278 N   0  0  0  0  0  0  0  0  0  0  0  0
    2.3332    1.7869    2.0824 C   0  0  0  0  0  0  0  0  0  0  0  0
    3.3202    1.9869    3.0487 N   0  0  0  0  0  0  0  0  0  0  0  0
   -0.8662    1.5148   -0.6616 C   0  0  0  0  0  0  0  0  0  0  0  0
   -1.5411    2.5442   -1.3540 C   0  0  0  0  0  0  0  0  0  0  0  0
   -2.5509    2.0936   -2.1016 N   0  0  0  0  0  0  0  0  0  0  0  0
   -2.5319    0.7655   -1.9046 N   0  0  0  0  0  0  0  0  0  0  0  0
   -1.5248    0.3703   -1.0646 C   0  0  0  0  0  0  0  0  0  0  0  0
   -3.5253   -0.1092   -2.5340 C   0  0  0  0  0  0  0  0  0  0  0  0
   -4.9754    0.3474   -2.2595 C   0  0  0  0  0  0  0  0  0  0  0  0
   -5.6428    0.9854   -3.4878 C   0  0  0  0  0  0  0  0  0  0  0  0
   -4.6949    1.7882   -4.2605 N   0  0  0  0  0  0  0  0  0  0  0  0
   -3.6298    0.9665   -4.8501 C   0  0  0  0  0  0  0  0  0  0  0  0
   -3.2680   -0.2840   -4.0353 C   0  0  0  0  0  0  0  0  0  0  0  0
    1.3810   -2.8177    3.8505 H   0  0  0  0  0  0  0  0  0  0  0  0
    3.1178   -2.6568    3.9246 H   0  0  0  0  0  0  0  0  0  0  0  0
    2.3944   -3.8392    2.8106 H   0  0  0  0  0  0  0  0  0  0  0  0
    1.2287   -1.9850    1.6499 H   0  0  0  0  0  0  0  0  0  0  0  0
    4.0217   -2.7672   -2.1113 H   0  0  0  0  0  0  0  0  0  0  0  0
    6.3367   -2.1507   -1.4163 H   0  0  0  0  0  0  0  0  0  0  0  0
    0.0043   -0.4344    1.0209 H   0  0  0  0  0  0  0  0  0  0  0  0
    0.8090    3.6223   -0.1387 H   0  0  0  0  0  0  0  0  0  0  0  0
    3.7431    2.8930    2.8762 H   0  0  0  0  0  0  0  0  0  0  0  0
    3.9924    1.2251    3.0643 H   0  0  0  0  0  0  0  0  0  0  0  0
   -1.3495    3.6080   -1.3376 H   0  0  0  0  0  0  0  0  0  0  0  0
   -1.3869   -0.6723   -0.8258 H   0  0  0  0  0  0  0  0  0  0  0  0
   -3.3886   -1.0863   -2.0475 H   0  0  0  0  0  0  0  0  0  0  0  0
   -5.5801   -0.5238   -1.9644 H   0  0  0  0  0  0  0  0  0  0  0  0
   -5.0124    1.0411   -1.4080 H   0  0  0  0  0  0  0  0  0  0  0  0
   -6.0921    0.2127   -4.1274 H   0  0  0  0  0  0  0  0  0  0  0  0
   -6.4743    1.6233   -3.1556 H   0  0  0  0  0  0  0  0  0  0  0  0
   -4.2337    2.4440   -3.6104 H   0  0  0  0  0  0  0  0  0  0  0  0
   -3.9353    0.6622   -5.8602 H   0  0  0  0  0  0  0  0  0  0  0  0
   -2.7342    1.5933   -4.9851 H   0  0  0  0  0  0  0  0  0  0  0  0
   -2.2192   -0.5583   -4.2258 H   0  0  0  0  0  0  0  0  0  0  0  0
   -3.8844   -1.1225   -4.3888 H   0  0  0  0  0  0  0  0  0  0  0  0
  1  2  1  0
  2  3  1  0
  3  4  2  0
  4  5  1  0
  5  6  2  0
  6  7  1  0
  7  8  2  0
  8  9  1  0
  7 10  1  0
  4 11  1  0
  2 12  1  0
 12 13  1  0
 13 14  2  0
 14 15  1  0
 15 16  2  0
 16 17  1  0
 17 18  2  0
 18 19  1  0
 15 20  1  0
 20 21  1  0
 21 22  2  0
 22 23  1  0
 23 24  1  0
 23 25  1  0
 25 26  1  0
 26 27  1  0
 27 28  1  0
 28 29  1  0
 29 30  1  0
  8  3  1  0
 18 13  1  0
 24 20  2  0
 30 25  1  0
  1 31  1  0
  1 32  1  0
  1 33  1  0
  2 34  1  6
  5 35  1  0
  6 36  1  0
 14 37  1  0
 16 38  1  0
 19 39  1  0
 19 40  1  0
 21 41  1  0
 24 42  1  0
 25 43  1  0
 26 44  1  0
 26 45  1  0
 27 46  1  0
 27 47  1  0
 28 48  1  0
 29 49  1  0
 29 50  1  0
 30 51  1  0
 30 52  1  0
M  END
>  <energy_abs>  (64) 
30.478404961436247

>  <SMILES>  (64) 
C[C@H](c1c(ccc(c1Cl)F)Cl)Oc2cc(cnc2N)c3cnn(c3)C4CCNCC4

>  <cluster_no>  (64) 
64

>  <fda_drugs_id>  (64) 
KTEIFNKAUNYNJU-GFCCVEGCSA-N

>  <initial_conformation_id>  (64) 
249

>  <minimize_method>  (64) 
MMFF

$$$$

     RDKit          3D

 52 55  0  0  0  0  0  0  0  0999 V2000
    2.1394   -2.7677    1.1663 C   0  0  0  0  0  0  0  0  0  0  0  0
    3.0948   -1.6240    0.8129 C   0  0  2  0  0  0  0  0  0  0  0  0
    4.5038   -1.8859    1.3392 C   0  0  0  0  0  0  0  0  0  0  0  0
    5.5465   -2.2445    0.4535 C   0  0  0  0  0  0  0  0  0  0  0  0
    6.8500   -2.4890    0.9112 C   0  0  0  0  0  0  0  0  0  0  0  0
    7.1486   -2.3900    2.2638 C   0  0  0  0  0  0  0  0  0  0  0  0
    6.1405   -2.0514    3.1543 C   0  0  0  0  0  0  0  0  0  0  0  0
    4.8325   -1.8014    2.7133 C   0  0  0  0  0  0  0  0  0  0  0  0
    3.6729   -1.4000    3.9365 Cl  0  0  0  0  0  0  0  0  0  0  0  0
    6.4486   -1.9728    4.4582 F   0  0  0  0  0  0  0  0  0  0  0  0
    5.3047   -2.4152   -1.2523 Cl  0  0  0  0  0  0  0  0  0  0  0  0
    2.6136   -0.3786    1.3541 O   0  0  0  0  0  0  0  0  0  0  0  0
    1.9486    0.3763    0.4235 C   0  0  0  0  0  0  0  0  0  0  0  0
    0.5565    0.3200    0.3929 C   0  0  0  0  0  0  0  0  0  0  0  0
   -0.1429    1.1069   -0.5224 C   0  0  0  0  0  0  0  0  0  0  0  0
    0.6188    1.9275   -1.3515 C   0  0  0  0  0  0  0  0  0  0  0  0
    1.9738    2.0169   -1.3219 N   0  0  0  0  0  0  0  0  0  0  0  0
    2.6264    1.2616   -0.4241 C   0  0  0  0  0  0  0  0  0  0  0  0
    4.0222    1.3886   -0.3673 N   0  0  0  0  0  0  0  0  0  0  0  0
   -1.5926    1.0709   -0.5826 C   0  0  0  0  0  0  0  0  0  0  0  0
   -2.5455    0.6820    0.3876 C   0  0  0  0  0  0  0  0  0  0  0  0
   -3.8025    0.7751   -0.0523 N   0  0  0  0  0  0  0  0  0  0  0  0
   -3.6676    1.2249   -1.3135 N   0  0  0  0  0  0  0  0  0  0  0  0
   -2.3612    1.4150   -1.6767 C   0  0  0  0  0  0  0  0  0  0  0  0
   -4.8568    1.4351   -2.1301 C   0  0  0  0  0  0  0  0  0  0  0  0
   -4.8663    0.5280   -3.3618 C   0  0  0  0  0  0  0  0  0  0  0  0
   -6.1182    0.7920   -4.1940 C   0  0  0  0  0  0  0  0  0  0  0  0
   -6.3928    2.2064   -4.4552 N   0  0  0  0  0  0  0  0  0  0  0  0
   -5.3510    3.1097   -3.9790 C   0  0  0  0  0  0  0  0  0  0  0  0
   -5.0597    2.9161   -2.4939 C   0  0  0  0  0  0  0  0  0  0  0  0
    1.1764   -2.6269    0.6647 H   0  0  0  0  0  0  0  0  0  0  0  0
    2.5449   -3.7363    0.8522 H   0  0  0  0  0  0  0  0  0  0  0  0
    1.9205   -2.8142    2.2369 H   0  0  0  0  0  0  0  0  0  0  0  0
    3.1099   -1.5542   -0.2796 H   0  0  0  0  0  0  0  0  0  0  0  0
    7.6379   -2.7601    0.2114 H   0  0  0  0  0  0  0  0  0  0  0  0
    8.1534   -2.5774    2.6302 H   0  0  0  0  0  0  0  0  0  0  0  0
    0.0376   -0.3386    1.0827 H   0  0  0  0  0  0  0  0  0  0  0  0
    0.1566    2.5812   -2.0854 H   0  0  0  0  0  0  0  0  0  0  0  0
    4.2788    1.6029    0.5937 H   0  0  0  0  0  0  0  0  0  0  0  0
    4.4532    0.5034   -0.6090 H   0  0  0  0  0  0  0  0  0  0  0  0
   -2.3774    0.3374    1.4009 H   0  0  0  0  0  0  0  0  0  0  0  0
   -2.1041    1.7614   -2.6681 H   0  0  0  0  0  0  0  0  0  0  0  0
   -5.7052    1.1359   -1.4974 H   0  0  0  0  0  0  0  0  0  0  0  0
   -3.9739    0.6951   -3.9772 H   0  0  0  0  0  0  0  0  0  0  0  0
   -4.8383   -0.5261   -3.0603 H   0  0  0  0  0  0  0  0  0  0  0  0
   -6.0310    0.2687   -5.1528 H   0  0  0  0  0  0  0  0  0  0  0  0
   -6.9869    0.3578   -3.6833 H   0  0  0  0  0  0  0  0  0  0  0  0
   -7.2917    2.4629   -4.0385 H   0  0  0  0  0  0  0  0  0  0  0  0
   -4.4397    2.9687   -4.5734 H   0  0  0  0  0  0  0  0  0  0  0  0
   -5.6685    4.1433   -4.1572 H   0  0  0  0  0  0  0  0  0  0  0  0
   -5.9011    3.3088   -1.9063 H   0  0  0  0  0  0  0  0  0  0  0  0
   -4.1924    3.5301   -2.2204 H   0  0  0  0  0  0  0  0  0  0  0  0
  1  2  1  0
  2  3  1  0
  3  4  2  0
  4  5  1  0
  5  6  2  0
  6  7  1  0
  7  8  2  0
  8  9  1  0
  7 10  1  0
  4 11  1  0
  2 12  1  0
 12 13  1  0
 13 14  2  0
 14 15  1  0
 15 16  2  0
 16 17  1  0
 17 18  2  0
 18 19  1  0
 15 20  1  0
 20 21  1  0
 21 22  2  0
 22 23  1  0
 23 24  1  0
 23 25  1  0
 25 26  1  0
 26 27  1  0
 27 28  1  0
 28 29  1  0
 29 30  1  0
  8  3  1  0
 18 13  1  0
 24 20  2  0
 30 25  1  0
  1 31  1  0
  1 32  1  0
  1 33  1  0
  2 34  1  6
  5 35  1  0
  6 36  1  0
 14 37  1  0
 16 38  1  0
 19 39  1  0
 19 40  1  0
 21 41  1  0
 24 42  1  0
 25 43  1  0
 26 44  1  0
 26 45  1  0
 27 46  1  0
 27 47  1  0
 28 48  1  0
 29 49  1  0
 29 50  1  0
 30 51  1  0
 30 52  1  0
M  END
>  <energy_abs>  (65) 
42.33361851111911

>  <SMILES>  (65) 
C[C@H](c1c(ccc(c1Cl)F)Cl)Oc2cc(cnc2N)c3cnn(c3)C4CCNCC4

>  <cluster_no>  (65) 
65

>  <fda_drugs_id>  (65) 
KTEIFNKAUNYNJU-GFCCVEGCSA-N

>  <initial_conformation_id>  (65) 
248

>  <minimize_method>  (65) 
MMFF

$$$$

     RDKit          3D

 52 55  0  0  0  0  0  0  0  0999 V2000
    2.5442   -1.9903    3.0226 C   0  0  0  0  0  0  0  0  0  0  0  0
    2.8874   -1.4102    1.6466 C   0  0  2  0  0  0  0  0  0  0  0  0
    4.2580   -1.8871    1.1717 C   0  0  0  0  0  0  0  0  0  0  0  0
    4.3656   -2.8725    0.1624 C   0  0  0  0  0  0  0  0  0  0  0  0
    5.6131   -3.3293   -0.2884 C   0  0  0  0  0  0  0  0  0  0  0  0
    6.7852   -2.8207    0.2565 C   0  0  0  0  0  0  0  0  0  0  0  0
    6.7056   -1.8608    1.2540 C   0  0  0  0  0  0  0  0  0  0  0  0
    5.4671   -1.3927    1.7172 C   0  0  0  0  0  0  0  0  0  0  0  0
    5.5170   -0.2114    2.9864 Cl  0  0  0  0  0  0  0  0  0  0  0  0
    7.8517   -1.3947    1.7738 F   0  0  0  0  0  0  0  0  0  0  0  0
    2.9844   -3.6008   -0.5878 Cl  0  0  0  0  0  0  0  0  0  0  0  0
    2.8805    0.0286    1.6606 O   0  0  0  0  0  0  0  0  0  0  0  0
    1.6317    0.5661    1.4949 C   0  0  0  0  0  0  0  0  0  0  0  0
    1.0140    0.5558    0.2444 C   0  0  0  0  0  0  0  0  0  0  0  0
   -0.2352    1.1595    0.0904 C   0  0  0  0  0  0  0  0  0  0  0  0
   -0.7828    1.7648    1.2214 C   0  0  0  0  0  0  0  0  0  0  0  0
   -0.1898    1.8114    2.4432 N   0  0  0  0  0  0  0  0  0  0  0  0
    1.0149    1.2285    2.5592 C   0  0  0  0  0  0  0  0  0  0  0  0
    1.5993    1.2592    3.8261 N   0  0  0  0  0  0  0  0  0  0  0  0
   -0.9096    1.1642   -1.1953 C   0  0  0  0  0  0  0  0  0  0  0  0
   -0.4026    0.9878   -2.5046 C   0  0  0  0  0  0  0  0  0  0  0  0
   -1.3502    1.0535   -3.4421 N   0  0  0  0  0  0  0  0  0  0  0  0
   -2.4788    1.2700   -2.7405 N   0  0  0  0  0  0  0  0  0  0  0  0
   -2.2649    1.3325   -1.3903 C   0  0  0  0  0  0  0  0  0  0  0  0
   -3.7453    1.4093   -3.4484 C   0  0  0  0  0  0  0  0  0  0  0  0
   -4.3683    2.7938   -3.2408 C   0  0  0  0  0  0  0  0  0  0  0  0
   -5.7044    2.8920   -3.9681 C   0  0  0  0  0  0  0  0  0  0  0  0
   -6.6111    1.8263   -3.5436 N   0  0  0  0  0  0  0  0  0  0  0  0
   -6.0566    0.5000   -3.8132 C   0  0  0  0  0  0  0  0  0  0  0  0
   -4.7353    0.3000   -3.0792 C   0  0  0  0  0  0  0  0  0  0  0  0
    3.1744   -1.5798    3.8163 H   0  0  0  0  0  0  0  0  0  0  0  0
    1.5114   -1.7468    3.2945 H   0  0  0  0  0  0  0  0  0  0  0  0
    2.6458   -3.0805    3.0309 H   0  0  0  0  0  0  0  0  0  0  0  0
    2.1178   -1.7542    0.9503 H   0  0  0  0  0  0  0  0  0  0  0  0
    5.6750   -4.0869   -1.0676 H   0  0  0  0  0  0  0  0  0  0  0  0
    7.7573   -3.1688   -0.0805 H   0  0  0  0  0  0  0  0  0  0  0  0
    1.5159    0.0798   -0.5917 H   0  0  0  0  0  0  0  0  0  0  0  0
   -1.7461    2.2675    1.1871 H   0  0  0  0  0  0  0  0  0  0  0  0
    2.5751    1.5328    3.7645 H   0  0  0  0  0  0  0  0  0  0  0  0
    1.0434    1.8770    4.4100 H   0  0  0  0  0  0  0  0  0  0  0  0
    0.6201    0.8222   -2.8172 H   0  0  0  0  0  0  0  0  0  0  0  0
   -3.0865    1.4891   -0.7052 H   0  0  0  0  0  0  0  0  0  0  0  0
   -3.5068    1.3051   -4.5170 H   0  0  0  0  0  0  0  0  0  0  0  0
   -3.6894    3.5734   -3.6071 H   0  0  0  0  0  0  0  0  0  0  0  0
   -4.5220    2.9907   -2.1719 H   0  0  0  0  0  0  0  0  0  0  0  0
   -5.5541    2.8523   -5.0536 H   0  0  0  0  0  0  0  0  0  0  0  0
   -6.1654    3.8602   -3.7438 H   0  0  0  0  0  0  0  0  0  0  0  0
   -7.5001    1.9261   -4.0351 H   0  0  0  0  0  0  0  0  0  0  0  0
   -5.9207    0.3572   -4.8923 H   0  0  0  0  0  0  0  0  0  0  0  0
   -6.7721   -0.2589   -3.4777 H   0  0  0  0  0  0  0  0  0  0  0  0
   -4.3164   -0.6823   -3.3320 H   0  0  0  0  0  0  0  0  0  0  0  0
   -4.9184    0.2920   -1.9965 H   0  0  0  0  0  0  0  0  0  0  0  0
  1  2  1  0
  2  3  1  0
  3  4  2  0
  4  5  1  0
  5  6  2  0
  6  7  1  0
  7  8  2  0
  8  9  1  0
  7 10  1  0
  4 11  1  0
  2 12  1  0
 12 13  1  0
 13 14  2  0
 14 15  1  0
 15 16  2  0
 16 17  1  0
 17 18  2  0
 18 19  1  0
 15 20  1  0
 20 21  1  0
 21 22  2  0
 22 23  1  0
 23 24  1  0
 23 25  1  0
 25 26  1  0
 26 27  1  0
 27 28  1  0
 28 29  1  0
 29 30  1  0
  8  3  1  0
 18 13  1  0
 24 20  2  0
 30 25  1  0
  1 31  1  0
  1 32  1  0
  1 33  1  0
  2 34  1  6
  5 35  1  0
  6 36  1  0
 14 37  1  0
 16 38  1  0
 19 39  1  0
 19 40  1  0
 21 41  1  0
 24 42  1  0
 25 43  1  0
 26 44  1  0
 26 45  1  0
 27 46  1  0
 27 47  1  0
 28 48  1  0
 29 49  1  0
 29 50  1  0
 30 51  1  0
 30 52  1  0
M  END
>  <energy_abs>  (66) 
22.858022890546515

>  <SMILES>  (66) 
C[C@H](c1c(ccc(c1Cl)F)Cl)Oc2cc(cnc2N)c3cnn(c3)C4CCNCC4

>  <cluster_no>  (66) 
66

>  <fda_drugs_id>  (66) 
KTEIFNKAUNYNJU-GFCCVEGCSA-N

>  <initial_conformation_id>  (66) 
246

>  <minimize_method>  (66) 
MMFF

$$$$

     RDKit          3D

 52 55  0  0  0  0  0  0  0  0999 V2000
    2.1132   -3.3886    2.0134 C   0  0  0  0  0  0  0  0  0  0  0  0
    2.4778   -2.0493    1.3659 C   0  0  2  0  0  0  0  0  0  0  0  0
    3.9762   -1.9316    1.0975 C   0  0  0  0  0  0  0  0  0  0  0  0
    4.4749   -2.0104   -0.2251 C   0  0  0  0  0  0  0  0  0  0  0  0
    5.8460   -1.8998   -0.5022 C   0  0  0  0  0  0  0  0  0  0  0  0
    6.7581   -1.7148    0.5293 C   0  0  0  0  0  0  0  0  0  0  0  0
    6.2943   -1.6455    1.8353 C   0  0  0  0  0  0  0  0  0  0  0  0
    4.9265   -1.7526    2.1305 C   0  0  0  0  0  0  0  0  0  0  0  0
    4.4860   -1.6332    3.8024 Cl  0  0  0  0  0  0  0  0  0  0  0  0
    7.1911   -1.4576    2.8158 F   0  0  0  0  0  0  0  0  0  0  0  0
    3.4478   -2.2410   -1.6036 Cl  0  0  0  0  0  0  0  0  0  0  0  0
    2.0119   -0.9873    2.2220 O   0  0  0  0  0  0  0  0  0  0  0  0
    1.5335    0.1084    1.5468 C   0  0  0  0  0  0  0  0  0  0  0  0
    0.4498    0.0170    0.6710 C   0  0  0  0  0  0  0  0  0  0  0  0
   -0.0224    1.1646    0.0307 C   0  0  0  0  0  0  0  0  0  0  0  0
    0.6250    2.3602    0.3294 C   0  0  0  0  0  0  0  0  0  0  0  0
    1.6531    2.4837    1.2052 N   0  0  0  0  0  0  0  0  0  0  0  0
    2.0842    1.3684    1.8182 C   0  0  0  0  0  0  0  0  0  0  0  0
    3.1166    1.5125    2.7600 N   0  0  0  0  0  0  0  0  0  0  0  0
   -1.1355    1.0952   -0.8982 C   0  0  0  0  0  0  0  0  0  0  0  0
   -1.6345    0.0159   -1.6632 C   0  0  0  0  0  0  0  0  0  0  0  0
   -2.7003    0.3466   -2.3935 N   0  0  0  0  0  0  0  0  0  0  0  0
   -2.8999    1.6431   -2.1038 N   0  0  0  0  0  0  0  0  0  0  0  0
   -1.9821    2.1373   -1.2132 C   0  0  0  0  0  0  0  0  0  0  0  0
   -4.0124    2.3864   -2.6928 C   0  0  0  0  0  0  0  0  0  0  0  0
   -5.3761    1.9119   -2.1702 C   0  0  0  0  0  0  0  0  0  0  0  0
   -5.9170    0.7071   -2.9356 C   0  0  0  0  0  0  0  0  0  0  0  0
   -5.9459    0.9566   -4.3773 N   0  0  0  0  0  0  0  0  0  0  0  0
   -4.5921    1.2000   -4.8791 C   0  0  0  0  0  0  0  0  0  0  0  0
   -3.9630    2.4293   -4.2270 C   0  0  0  0  0  0  0  0  0  0  0  0
    2.5427   -3.5038    3.0119 H   0  0  0  0  0  0  0  0  0  0  0  0
    1.0266   -3.4583    2.1402 H   0  0  0  0  0  0  0  0  0  0  0  0
    2.4455   -4.2320    1.3981 H   0  0  0  0  0  0  0  0  0  0  0  0
    1.9203   -2.0281    0.4267 H   0  0  0  0  0  0  0  0  0  0  0  0
    6.2067   -1.9616   -1.5274 H   0  0  0  0  0  0  0  0  0  0  0  0
    7.8223   -1.6261    0.3290 H   0  0  0  0  0  0  0  0  0  0  0  0
   -0.0402   -0.9396    0.5164 H   0  0  0  0  0  0  0  0  0  0  0  0
    0.3356    3.2977   -0.1365 H   0  0  0  0  0  0  0  0  0  0  0  0
    3.8949    0.9227    2.4847 H   0  0  0  0  0  0  0  0  0  0  0  0
    2.7825    1.1326    3.6435 H   0  0  0  0  0  0  0  0  0  0  0  0
   -1.2642   -0.9986   -1.7233 H   0  0  0  0  0  0  0  0  0  0  0  0
   -2.0266    3.1646   -0.8784 H   0  0  0  0  0  0  0  0  0  0  0  0
   -3.8691    3.4170   -2.3385 H   0  0  0  0  0  0  0  0  0  0  0  0
   -6.0932    2.7376   -2.2755 H   0  0  0  0  0  0  0  0  0  0  0  0
   -5.3255    1.6770   -1.0995 H   0  0  0  0  0  0  0  0  0  0  0  0
   -5.3360   -0.1963   -2.7174 H   0  0  0  0  0  0  0  0  0  0  0  0
   -6.9395    0.4976   -2.5976 H   0  0  0  0  0  0  0  0  0  0  0  0
   -6.5397    1.7598   -4.5792 H   0  0  0  0  0  0  0  0  0  0  0  0
   -3.9699    0.3098   -4.7375 H   0  0  0  0  0  0  0  0  0  0  0  0
   -4.6480    1.3594   -5.9624 H   0  0  0  0  0  0  0  0  0  0  0  0
   -4.5167    3.3167   -4.5642 H   0  0  0  0  0  0  0  0  0  0  0  0
   -2.9322    2.5513   -4.5830 H   0  0  0  0  0  0  0  0  0  0  0  0
  1  2  1  0
  2  3  1  0
  3  4  2  0
  4  5  1  0
  5  6  2  0
  6  7  1  0
  7  8  2  0
  8  9  1  0
  7 10  1  0
  4 11  1  0
  2 12  1  0
 12 13  1  0
 13 14  2  0
 14 15  1  0
 15 16  2  0
 16 17  1  0
 17 18  2  0
 18 19  1  0
 15 20  1  0
 20 21  1  0
 21 22  2  0
 22 23  1  0
 23 24  1  0
 23 25  1  0
 25 26  1  0
 26 27  1  0
 27 28  1  0
 28 29  1  0
 29 30  1  0
  8  3  1  0
 18 13  1  0
 24 20  2  0
 30 25  1  0
  1 31  1  0
  1 32  1  0
  1 33  1  0
  2 34  1  6
  5 35  1  0
  6 36  1  0
 14 37  1  0
 16 38  1  0
 19 39  1  0
 19 40  1  0
 21 41  1  0
 24 42  1  0
 25 43  1  0
 26 44  1  0
 26 45  1  0
 27 46  1  0
 27 47  1  0
 28 48  1  0
 29 49  1  0
 29 50  1  0
 30 51  1  0
 30 52  1  0
M  END
>  <energy_abs>  (67) 
34.63222774358536

>  <SMILES>  (67) 
C[C@H](c1c(ccc(c1Cl)F)Cl)Oc2cc(cnc2N)c3cnn(c3)C4CCNCC4

>  <cluster_no>  (67) 
67

>  <fda_drugs_id>  (67) 
KTEIFNKAUNYNJU-GFCCVEGCSA-N

>  <initial_conformation_id>  (67) 
244

>  <minimize_method>  (67) 
MMFF

$$$$

     RDKit          3D

 52 55  0  0  0  0  0  0  0  0999 V2000
    1.9807   -3.3685    1.4221 C   0  0  0  0  0  0  0  0  0  0  0  0
    2.4751   -1.9666    1.0589 C   0  0  2  0  0  0  0  0  0  0  0  0
    3.9974   -1.9017    1.0140 C   0  0  0  0  0  0  0  0  0  0  0  0
    4.6727   -1.8473   -0.2278 C   0  0  0  0  0  0  0  0  0  0  0  0
    6.0712   -1.7715   -0.3015 C   0  0  0  0  0  0  0  0  0  0  0  0
    6.8337   -1.7537    0.8591 C   0  0  0  0  0  0  0  0  0  0  0  0
    6.1943   -1.8189    2.0884 C   0  0  0  0  0  0  0  0  0  0  0  0
    4.7973   -1.8976    2.1802 C   0  0  0  0  0  0  0  0  0  0  0  0
    4.1318   -1.9972    3.7780 Cl  0  0  0  0  0  0  0  0  0  0  0  0
    6.9516   -1.8167    3.1961 F   0  0  0  0  0  0  0  0  0  0  0  0
    3.8422   -1.8933   -1.7489 Cl  0  0  0  0  0  0  0  0  0  0  0  0
    1.9184   -1.0323    2.0057 O   0  0  0  0  0  0  0  0  0  0  0  0
    1.5706    0.1524    1.4085 C   0  0  0  0  0  0  0  0  0  0  0  0
    0.3667    0.2474    0.7111 C   0  0  0  0  0  0  0  0  0  0  0  0
    0.0020    1.4665    0.1393 C   0  0  0  0  0  0  0  0  0  0  0  0
    0.8727    2.5383    0.3264 C   0  0  0  0  0  0  0  0  0  0  0  0
    2.0371    2.4770    1.0223 N   0  0  0  0  0  0  0  0  0  0  0  0
    2.3634    1.2923    1.5662 C   0  0  0  0  0  0  0  0  0  0  0  0
    3.5758    1.2472    2.2546 N   0  0  0  0  0  0  0  0  0  0  0  0
   -1.2273    1.6233   -0.6114 C   0  0  0  0  0  0  0  0  0  0  0  0
   -2.0691    2.7456   -0.7872 C   0  0  0  0  0  0  0  0  0  0  0  0
   -3.1074    2.4922   -1.5878 N   0  0  0  0  0  0  0  0  0  0  0  0
   -2.9349    1.2022   -1.9349 N   0  0  0  0  0  0  0  0  0  0  0  0
   -1.8201    0.6393   -1.3758 C   0  0  0  0  0  0  0  0  0  0  0  0
   -3.8696    0.5505   -2.8495 C   0  0  0  0  0  0  0  0  0  0  0  0
   -5.3169    0.6005   -2.3355 C   0  0  0  0  0  0  0  0  0  0  0  0
   -6.1291    1.6447   -3.0908 C   0  0  0  0  0  0  0  0  0  0  0  0
   -6.2020    1.3481   -4.5244 N   0  0  0  0  0  0  0  0  0  0  0  0
   -4.9677    0.8143   -5.0967 C   0  0  0  0  0  0  0  0  0  0  0  0
   -3.7255    1.1163   -4.2700 C   0  0  0  0  0  0  0  0  0  0  0  0
    2.3816   -4.1231    0.7373 H   0  0  0  0  0  0  0  0  0  0  0  0
    0.8866   -3.4013    1.3718 H   0  0  0  0  0  0  0  0  0  0  0  0
    2.2467   -3.6549    2.4427 H   0  0  0  0  0  0  0  0  0  0  0  0
    2.0489   -1.7580    0.0721 H   0  0  0  0  0  0  0  0  0  0  0  0
    6.5686   -1.7267   -1.2684 H   0  0  0  0  0  0  0  0  0  0  0  0
    7.9161   -1.6945    0.8171 H   0  0  0  0  0  0  0  0  0  0  0  0
   -0.2761   -0.6232    0.6337 H   0  0  0  0  0  0  0  0  0  0  0  0
    0.6671    3.5170   -0.0997 H   0  0  0  0  0  0  0  0  0  0  0  0
    3.4564    0.7943    3.1553 H   0  0  0  0  0  0  0  0  0  0  0  0
    3.9212    2.1991    2.3302 H   0  0  0  0  0  0  0  0  0  0  0  0
   -1.9719    3.7373   -0.3640 H   0  0  0  0  0  0  0  0  0  0  0  0
   -1.5426   -0.3856   -1.5831 H   0  0  0  0  0  0  0  0  0  0  0  0
   -3.5701   -0.5067   -2.8668 H   0  0  0  0  0  0  0  0  0  0  0  0
   -5.7830   -0.3827   -2.4881 H   0  0  0  0  0  0  0  0  0  0  0  0
   -5.3611    0.7937   -1.2567 H   0  0  0  0  0  0  0  0  0  0  0  0
   -5.7007    2.6423   -2.9391 H   0  0  0  0  0  0  0  0  0  0  0  0
   -7.1493    1.6758   -2.6928 H   0  0  0  0  0  0  0  0  0  0  0  0
   -6.4765    2.1981   -5.0188 H   0  0  0  0  0  0  0  0  0  0  0  0
   -5.0770   -0.2714   -5.2001 H   0  0  0  0  0  0  0  0  0  0  0  0
   -4.8413    1.2080   -6.1114 H   0  0  0  0  0  0  0  0  0  0  0  0
   -3.5613    2.2018   -4.2544 H   0  0  0  0  0  0  0  0  0  0  0  0
   -2.8392    0.6832   -4.7504 H   0  0  0  0  0  0  0  0  0  0  0  0
  1  2  1  0
  2  3  1  0
  3  4  2  0
  4  5  1  0
  5  6  2  0
  6  7  1  0
  7  8  2  0
  8  9  1  0
  7 10  1  0
  4 11  1  0
  2 12  1  0
 12 13  1  0
 13 14  2  0
 14 15  1  0
 15 16  2  0
 16 17  1  0
 17 18  2  0
 18 19  1  0
 15 20  1  0
 20 21  1  0
 21 22  2  0
 22 23  1  0
 23 24  1  0
 23 25  1  0
 25 26  1  0
 26 27  1  0
 27 28  1  0
 28 29  1  0
 29 30  1  0
  8  3  1  0
 18 13  1  0
 24 20  2  0
 30 25  1  0
  1 31  1  0
  1 32  1  0
  1 33  1  0
  2 34  1  6
  5 35  1  0
  6 36  1  0
 14 37  1  0
 16 38  1  0
 19 39  1  0
 19 40  1  0
 21 41  1  0
 24 42  1  0
 25 43  1  0
 26 44  1  0
 26 45  1  0
 27 46  1  0
 27 47  1  0
 28 48  1  0
 29 49  1  0
 29 50  1  0
 30 51  1  0
 30 52  1  0
M  END
>  <energy_abs>  (68) 
27.14925144993345

>  <SMILES>  (68) 
C[C@H](c1c(ccc(c1Cl)F)Cl)Oc2cc(cnc2N)c3cnn(c3)C4CCNCC4

>  <cluster_no>  (68) 
68

>  <fda_drugs_id>  (68) 
KTEIFNKAUNYNJU-GFCCVEGCSA-N

>  <initial_conformation_id>  (68) 
243

>  <minimize_method>  (68) 
MMFF

$$$$

     RDKit          3D

 52 55  0  0  0  0  0  0  0  0999 V2000
    5.2730   -0.5806    2.6053 C   0  0  0  0  0  0  0  0  0  0  0  0
    3.8267   -0.5370    2.1066 C   0  0  2  0  0  0  0  0  0  0  0  0
    3.6386   -1.4541    0.9006 C   0  0  0  0  0  0  0  0  0  0  0  0
    3.0278   -2.7209    1.0594 C   0  0  0  0  0  0  0  0  0  0  0  0
    2.8349   -3.5855   -0.0279 C   0  0  0  0  0  0  0  0  0  0  0  0
    3.2526   -3.2151   -1.2994 C   0  0  0  0  0  0  0  0  0  0  0  0
    3.8721   -1.9862   -1.4761 C   0  0  0  0  0  0  0  0  0  0  0  0
    4.0746   -1.1096   -0.3997 C   0  0  0  0  0  0  0  0  0  0  0  0
    4.8798    0.3827   -0.7581 Cl  0  0  0  0  0  0  0  0  0  0  0  0
    4.2775   -1.6564   -2.7117 F   0  0  0  0  0  0  0  0  0  0  0  0
    2.4939   -3.3129    2.5962 Cl  0  0  0  0  0  0  0  0  0  0  0  0
    3.4945    0.8394    1.8261 O   0  0  0  0  0  0  0  0  0  0  0  0
    2.1733    1.1076    2.0833 C   0  0  0  0  0  0  0  0  0  0  0  0
    1.2344    0.9476    1.0663 C   0  0  0  0  0  0  0  0  0  0  0  0
   -0.1055    1.2450    1.3143 C   0  0  0  0  0  0  0  0  0  0  0  0
   -0.4183    1.7024    2.5925 C   0  0  0  0  0  0  0  0  0  0  0  0
    0.4835    1.8926    3.5894 N   0  0  0  0  0  0  0  0  0  0  0  0
    1.7698    1.6155    3.3238 C   0  0  0  0  0  0  0  0  0  0  0  0
    2.7086    1.8698    4.3356 N   0  0  0  0  0  0  0  0  0  0  0  0
   -1.1295    1.0902    0.2972 C   0  0  0  0  0  0  0  0  0  0  0  0
   -2.5309    0.9303    0.4083 C   0  0  0  0  0  0  0  0  0  0  0  0
   -3.1381    0.8371   -0.7776 N   0  0  0  0  0  0  0  0  0  0  0  0
   -2.1288    0.9426   -1.6613 N   0  0  0  0  0  0  0  0  0  0  0  0
   -0.9067    1.0924   -1.0652 C   0  0  0  0  0  0  0  0  0  0  0  0
   -2.3929    0.9018   -3.0941 C   0  0  0  0  0  0  0  0  0  0  0  0
   -3.2681    2.0750   -3.5482 C   0  0  0  0  0  0  0  0  0  0  0  0
   -3.5478    1.9815   -5.0444 C   0  0  0  0  0  0  0  0  0  0  0  0
   -4.1533    0.6990   -5.4061 N   0  0  0  0  0  0  0  0  0  0  0  0
   -3.3025   -0.4271   -5.0215 C   0  0  0  0  0  0  0  0  0  0  0  0
   -3.0085   -0.4346   -3.5251 C   0  0  0  0  0  0  0  0  0  0  0  0
    5.5798   -1.6024    2.8523 H   0  0  0  0  0  0  0  0  0  0  0  0
    5.9763   -0.1809    1.8680 H   0  0  0  0  0  0  0  0  0  0  0  0
    5.3829    0.0391    3.5017 H   0  0  0  0  0  0  0  0  0  0  0  0
    3.2083   -0.8669    2.9480 H   0  0  0  0  0  0  0  0  0  0  0  0
    2.3611   -4.5550    0.1165 H   0  0  0  0  0  0  0  0  0  0  0  0
    3.1100   -3.8749   -2.1493 H   0  0  0  0  0  0  0  0  0  0  0  0
    1.5584    0.5977    0.0926 H   0  0  0  0  0  0  0  0  0  0  0  0
   -1.4361    1.9627    2.8726 H   0  0  0  0  0  0  0  0  0  0  0  0
    3.4011    2.5149    3.9605 H   0  0  0  0  0  0  0  0  0  0  0  0
    3.1971    1.0129    4.5641 H   0  0  0  0  0  0  0  0  0  0  0  0
   -3.1372    0.8740    1.3034 H   0  0  0  0  0  0  0  0  0  0  0  0
   -0.0076    1.2024   -1.6552 H   0  0  0  0  0  0  0  0  0  0  0  0
   -1.4136    0.9988   -3.5840 H   0  0  0  0  0  0  0  0  0  0  0  0
   -4.2189    2.0808   -2.9994 H   0  0  0  0  0  0  0  0  0  0  0  0
   -2.7714    3.0276   -3.3232 H   0  0  0  0  0  0  0  0  0  0  0  0
   -4.2262    2.7894   -5.3399 H   0  0  0  0  0  0  0  0  0  0  0  0
   -2.6226    2.1271   -5.6144 H   0  0  0  0  0  0  0  0  0  0  0  0
   -5.0571    0.6121   -4.9366 H   0  0  0  0  0  0  0  0  0  0  0  0
   -2.3669   -0.3943   -5.5930 H   0  0  0  0  0  0  0  0  0  0  0  0
   -3.8045   -1.3615   -5.2990 H   0  0  0  0  0  0  0  0  0  0  0  0
   -3.9374   -0.6276   -2.9727 H   0  0  0  0  0  0  0  0  0  0  0  0
   -2.3257   -1.2597   -3.2865 H   0  0  0  0  0  0  0  0  0  0  0  0
  1  2  1  0
  2  3  1  0
  3  4  2  0
  4  5  1  0
  5  6  2  0
  6  7  1  0
  7  8  2  0
  8  9  1  0
  7 10  1  0
  4 11  1  0
  2 12  1  0
 12 13  1  0
 13 14  2  0
 14 15  1  0
 15 16  2  0
 16 17  1  0
 17 18  2  0
 18 19  1  0
 15 20  1  0
 20 21  1  0
 21 22  2  0
 22 23  1  0
 23 24  1  0
 23 25  1  0
 25 26  1  0
 26 27  1  0
 27 28  1  0
 28 29  1  0
 29 30  1  0
  8  3  1  0
 18 13  1  0
 24 20  2  0
 30 25  1  0
  1 31  1  0
  1 32  1  0
  1 33  1  0
  2 34  1  1
  5 35  1  0
  6 36  1  0
 14 37  1  0
 16 38  1  0
 19 39  1  0
 19 40  1  0
 21 41  1  0
 24 42  1  0
 25 43  1  0
 26 44  1  0
 26 45  1  0
 27 46  1  0
 27 47  1  0
 28 48  1  0
 29 49  1  0
 29 50  1  0
 30 51  1  0
 30 52  1  0
M  END
>  <energy_abs>  (69) 
34.28884048655362

>  <SMILES>  (69) 
C[C@H](c1c(ccc(c1Cl)F)Cl)Oc2cc(cnc2N)c3cnn(c3)C4CCNCC4

>  <cluster_no>  (69) 
69

>  <fda_drugs_id>  (69) 
KTEIFNKAUNYNJU-GFCCVEGCSA-N

>  <initial_conformation_id>  (69) 
242

>  <minimize_method>  (69) 
MMFF

$$$$

     RDKit          3D

 52 55  0  0  0  0  0  0  0  0999 V2000
    1.9368   -2.3152    2.0875 C   0  0  0  0  0  0  0  0  0  0  0  0
    2.8324   -1.5433    1.1151 C   0  0  2  0  0  0  0  0  0  0  0  0
    4.2352   -2.1509    1.0781 C   0  0  0  0  0  0  0  0  0  0  0  0
    4.6184   -2.9953    0.0089 C   0  0  0  0  0  0  0  0  0  0  0  0
    5.9017   -3.5569   -0.0615 C   0  0  0  0  0  0  0  0  0  0  0  0
    6.8313   -3.3059    0.9395 C   0  0  0  0  0  0  0  0  0  0  0  0
    6.4700   -2.5031    2.0119 C   0  0  0  0  0  0  0  0  0  0  0  0
    5.1930   -1.9303    2.0967 C   0  0  0  0  0  0  0  0  0  0  0  0
    4.8685   -0.9768    3.5088 Cl  0  0  0  0  0  0  0  0  0  0  0  0
    7.3807   -2.2894    2.9734 F   0  0  0  0  0  0  0  0  0  0  0  0
    3.5396   -3.4217   -1.2786 Cl  0  0  0  0  0  0  0  0  0  0  0  0
    2.9312   -0.1623    1.4808 O   0  0  0  0  0  0  0  0  0  0  0  0
    1.9626    0.7314    1.1098 C   0  0  0  0  0  0  0  0  0  0  0  0
    0.7907    0.4370    0.4117 C   0  0  0  0  0  0  0  0  0  0  0  0
   -0.1092    1.4614    0.0968 C   0  0  0  0  0  0  0  0  0  0  0  0
    0.2201    2.7480    0.5087 C   0  0  0  0  0  0  0  0  0  0  0  0
    1.3451    3.0686    1.1884 N   0  0  0  0  0  0  0  0  0  0  0  0
    2.1949    2.0695    1.4825 C   0  0  0  0  0  0  0  0  0  0  0  0
    3.3630    2.4078    2.1946 N   0  0  0  0  0  0  0  0  0  0  0  0
   -1.3341    1.1796   -0.6260 C   0  0  0  0  0  0  0  0  0  0  0  0
   -2.1562    0.0296   -0.6399 C   0  0  0  0  0  0  0  0  0  0  0  0
   -3.2006    0.1503   -1.4623 N   0  0  0  0  0  0  0  0  0  0  0  0
   -3.0488    1.3791   -1.9923 N   0  0  0  0  0  0  0  0  0  0  0  0
   -1.9454    2.0354   -1.5186 C   0  0  0  0  0  0  0  0  0  0  0  0
   -4.0061    1.8843   -2.9683 C   0  0  0  0  0  0  0  0  0  0  0  0
   -5.3585    2.2229   -2.3198 C   0  0  0  0  0  0  0  0  0  0  0  0
   -6.5386    1.8160   -3.1993 C   0  0  0  0  0  0  0  0  0  0  0  0
   -6.3204    2.1858   -4.5941 N   0  0  0  0  0  0  0  0  0  0  0  0
   -5.1449    1.5352   -5.1790 C   0  0  0  0  0  0  0  0  0  0  0  0
   -4.1676    0.9420   -4.1645 C   0  0  0  0  0  0  0  0  0  0  0  0
    1.8725   -3.3726    1.8098 H   0  0  0  0  0  0  0  0  0  0  0  0
    0.9222   -1.9050    2.1013 H   0  0  0  0  0  0  0  0  0  0  0  0
    2.3004   -2.2536    3.1182 H   0  0  0  0  0  0  0  0  0  0  0  0
    2.4078   -1.5932    0.1105 H   0  0  0  0  0  0  0  0  0  0  0  0
    6.1782   -4.1984   -0.8963 H   0  0  0  0  0  0  0  0  0  0  0  0
    7.8269   -3.7373    0.8993 H   0  0  0  0  0  0  0  0  0  0  0  0
    0.5597   -0.5735    0.0959 H   0  0  0  0  0  0  0  0  0  0  0  0
   -0.4323    3.5942    0.3129 H   0  0  0  0  0  0  0  0  0  0  0  0
    4.1588    2.0920    1.6463 H   0  0  0  0  0  0  0  0  0  0  0  0
    3.3784    1.8436    3.0419 H   0  0  0  0  0  0  0  0  0  0  0  0
   -2.0406   -0.8919   -0.0828 H   0  0  0  0  0  0  0  0  0  0  0  0
   -1.6916    3.0288   -1.8628 H   0  0  0  0  0  0  0  0  0  0  0  0
   -3.5736    2.8216   -3.3468 H   0  0  0  0  0  0  0  0  0  0  0  0
   -5.3965    3.3044   -2.1338 H   0  0  0  0  0  0  0  0  0  0  0  0
   -5.4729    1.7461   -1.3386 H   0  0  0  0  0  0  0  0  0  0  0  0
   -6.7282    0.7375   -3.1214 H   0  0  0  0  0  0  0  0  0  0  0  0
   -7.4479    2.3086   -2.8364 H   0  0  0  0  0  0  0  0  0  0  0  0
   -6.2322    3.1996   -4.6729 H   0  0  0  0  0  0  0  0  0  0  0  0
   -4.6190    2.2699   -5.8012 H   0  0  0  0  0  0  0  0  0  0  0  0
   -5.4788    0.7430   -5.8589 H   0  0  0  0  0  0  0  0  0  0  0  0
   -4.5355   -0.0382   -3.8334 H   0  0  0  0  0  0  0  0  0  0  0  0
   -3.1990    0.7608   -4.6459 H   0  0  0  0  0  0  0  0  0  0  0  0
  1  2  1  0
  2  3  1  0
  3  4  2  0
  4  5  1  0
  5  6  2  0
  6  7  1  0
  7  8  2  0
  8  9  1  0
  7 10  1  0
  4 11  1  0
  2 12  1  0
 12 13  1  0
 13 14  2  0
 14 15  1  0
 15 16  2  0
 16 17  1  0
 17 18  2  0
 18 19  1  0
 15 20  1  0
 20 21  1  0
 21 22  2  0
 22 23  1  0
 23 24  1  0
 23 25  1  0
 25 26  1  0
 26 27  1  0
 27 28  1  0
 28 29  1  0
 29 30  1  0
  8  3  1  0
 18 13  1  0
 24 20  2  0
 30 25  1  0
  1 31  1  0
  1 32  1  0
  1 33  1  0
  2 34  1  6
  5 35  1  0
  6 36  1  0
 14 37  1  0
 16 38  1  0
 19 39  1  0
 19 40  1  0
 21 41  1  0
 24 42  1  0
 25 43  1  0
 26 44  1  0
 26 45  1  0
 27 46  1  0
 27 47  1  0
 28 48  1  0
 29 49  1  0
 29 50  1  0
 30 51  1  0
 30 52  1  0
M  END
>  <energy_abs>  (70) 
41.086441261937

>  <SMILES>  (70) 
C[C@H](c1c(ccc(c1Cl)F)Cl)Oc2cc(cnc2N)c3cnn(c3)C4CCNCC4

>  <cluster_no>  (70) 
70

>  <fda_drugs_id>  (70) 
KTEIFNKAUNYNJU-GFCCVEGCSA-N

>  <initial_conformation_id>  (70) 
241

>  <minimize_method>  (70) 
MMFF

$$$$

     RDKit          3D

 52 55  0  0  0  0  0  0  0  0999 V2000
    3.1514   -1.1980    3.9514 C   0  0  0  0  0  0  0  0  0  0  0  0
    2.6176   -0.7148    2.5989 C   0  0  2  0  0  0  0  0  0  0  0  0
    3.0059   -1.6860    1.4866 C   0  0  0  0  0  0  0  0  0  0  0  0
    2.0538   -2.5937    0.9660 C   0  0  0  0  0  0  0  0  0  0  0  0
    2.3785   -3.4888   -0.0633 C   0  0  0  0  0  0  0  0  0  0  0  0
    3.6622   -3.5111   -0.5931 C   0  0  0  0  0  0  0  0  0  0  0  0
    4.6188   -2.6453   -0.0843 C   0  0  0  0  0  0  0  0  0  0  0  0
    4.3115   -1.7438    0.9445 C   0  0  0  0  0  0  0  0  0  0  0  0
    5.6108   -0.7451    1.5090 Cl  0  0  0  0  0  0  0  0  0  0  0  0
    5.8564   -2.6988   -0.5996 F   0  0  0  0  0  0  0  0  0  0  0  0
    0.4292   -2.6853    1.5600 Cl  0  0  0  0  0  0  0  0  0  0  0  0
    3.1070    0.6191    2.3884 O   0  0  0  0  0  0  0  0  0  0  0  0
    2.5742    1.3688    1.3694 C   0  0  0  0  0  0  0  0  0  0  0  0
    1.3315    1.1581    0.7711 C   0  0  0  0  0  0  0  0  0  0  0  0
    0.9031    1.9926   -0.2669 C   0  0  0  0  0  0  0  0  0  0  0  0
    1.7578    3.0244   -0.6406 C   0  0  0  0  0  0  0  0  0  0  0  0
    2.9604    3.2687   -0.0699 N   0  0  0  0  0  0  0  0  0  0  0  0
    3.3527    2.4511    0.9221 C   0  0  0  0  0  0  0  0  0  0  0  0
    4.6118    2.7007    1.5011 N   0  0  0  0  0  0  0  0  0  0  0  0
   -0.3784    1.8065   -0.9238 C   0  0  0  0  0  0  0  0  0  0  0  0
   -1.1935    2.7178   -1.6359 C   0  0  0  0  0  0  0  0  0  0  0  0
   -2.3081    2.1559   -2.1093 N   0  0  0  0  0  0  0  0  0  0  0  0
   -2.2159    0.8750   -1.7051 N   0  0  0  0  0  0  0  0  0  0  0  0
   -1.0757    0.6171   -0.9943 C   0  0  0  0  0  0  0  0  0  0  0  0
   -3.2687   -0.0826   -2.0360 C   0  0  0  0  0  0  0  0  0  0  0  0
   -4.5512    0.2238   -1.2492 C   0  0  0  0  0  0  0  0  0  0  0  0
   -5.7574   -0.4265   -1.9125 C   0  0  0  0  0  0  0  0  0  0  0  0
   -5.9663   -0.0111   -3.2984 N   0  0  0  0  0  0  0  0  0  0  0  0
   -4.7836    0.5606   -3.9467 C   0  0  0  0  0  0  0  0  0  0  0  0
   -3.5107   -0.1766   -3.5507 C   0  0  0  0  0  0  0  0  0  0  0  0
    2.8271   -0.5178    4.7472 H   0  0  0  0  0  0  0  0  0  0  0  0
    4.2449   -1.2096    3.9872 H   0  0  0  0  0  0  0  0  0  0  0  0
    2.7901   -2.2044    4.1877 H   0  0  0  0  0  0  0  0  0  0  0  0
    1.5350   -0.6487    2.7316 H   0  0  0  0  0  0  0  0  0  0  0  0
    1.6308   -4.1769   -0.4535 H   0  0  0  0  0  0  0  0  0  0  0  0
    3.9274   -4.1998   -1.3896 H   0  0  0  0  0  0  0  0  0  0  0  0
    0.6714    0.3722    1.1137 H   0  0  0  0  0  0  0  0  0  0  0  0
    1.5072    3.7138   -1.4424 H   0  0  0  0  0  0  0  0  0  0  0  0
    5.1758    1.8614    1.3793 H   0  0  0  0  0  0  0  0  0  0  0  0
    4.4747    2.7946    2.5040 H   0  0  0  0  0  0  0  0  0  0  0  0
   -1.0259    3.7703   -1.8265 H   0  0  0  0  0  0  0  0  0  0  0  0
   -0.8653   -0.3744   -0.6191 H   0  0  0  0  0  0  0  0  0  0  0  0
   -2.8875   -1.0597   -1.7088 H   0  0  0  0  0  0  0  0  0  0  0  0
   -4.7241    1.3055   -1.1722 H   0  0  0  0  0  0  0  0  0  0  0  0
   -4.4472   -0.1395   -0.2193 H   0  0  0  0  0  0  0  0  0  0  0  0
   -6.6609   -0.2090   -1.3317 H   0  0  0  0  0  0  0  0  0  0  0  0
   -5.6364   -1.5163   -1.8947 H   0  0  0  0  0  0  0  0  0  0  0  0
   -6.7273    0.6673   -3.3503 H   0  0  0  0  0  0  0  0  0  0  0  0
   -4.7005    1.6252   -3.6977 H   0  0  0  0  0  0  0  0  0  0  0  0
   -4.9204    0.4997   -5.0317 H   0  0  0  0  0  0  0  0  0  0  0  0
   -2.6579    0.2060   -4.1242 H   0  0  0  0  0  0  0  0  0  0  0  0
   -3.6154   -1.2338   -3.8302 H   0  0  0  0  0  0  0  0  0  0  0  0
  1  2  1  0
  2  3  1  0
  3  4  2  0
  4  5  1  0
  5  6  2  0
  6  7  1  0
  7  8  2  0
  8  9  1  0
  7 10  1  0
  4 11  1  0
  2 12  1  0
 12 13  1  0
 13 14  2  0
 14 15  1  0
 15 16  2  0
 16 17  1  0
 17 18  2  0
 18 19  1  0
 15 20  1  0
 20 21  1  0
 21 22  2  0
 22 23  1  0
 23 24  1  0
 23 25  1  0
 25 26  1  0
 26 27  1  0
 27 28  1  0
 28 29  1  0
 29 30  1  0
  8  3  1  0
 18 13  1  0
 24 20  2  0
 30 25  1  0
  1 31  1  0
  1 32  1  0
  1 33  1  0
  2 34  1  1
  5 35  1  0
  6 36  1  0
 14 37  1  0
 16 38  1  0
 19 39  1  0
 19 40  1  0
 21 41  1  0
 24 42  1  0
 25 43  1  0
 26 44  1  0
 26 45  1  0
 27 46  1  0
 27 47  1  0
 28 48  1  0
 29 49  1  0
 29 50  1  0
 30 51  1  0
 30 52  1  0
M  END
>  <energy_abs>  (71) 
36.1686859394586

>  <SMILES>  (71) 
C[C@H](c1c(ccc(c1Cl)F)Cl)Oc2cc(cnc2N)c3cnn(c3)C4CCNCC4

>  <cluster_no>  (71) 
71

>  <fda_drugs_id>  (71) 
KTEIFNKAUNYNJU-GFCCVEGCSA-N

>  <initial_conformation_id>  (71) 
239

>  <minimize_method>  (71) 
MMFF

$$$$

     RDKit          3D

 52 55  0  0  0  0  0  0  0  0999 V2000
    4.3145   -0.5160    3.2105 C   0  0  0  0  0  0  0  0  0  0  0  0
    3.4249   -0.3974    1.9699 C   0  0  2  0  0  0  0  0  0  0  0  0
    3.3487   -1.7052    1.1876 C   0  0  0  0  0  0  0  0  0  0  0  0
    4.4481   -2.2209    0.4592 C   0  0  0  0  0  0  0  0  0  0  0  0
    4.3556   -3.4323   -0.2462 C   0  0  0  0  0  0  0  0  0  0  0  0
    3.1692   -4.1557   -0.2536 C   0  0  0  0  0  0  0  0  0  0  0  0
    2.0774   -3.6655    0.4481 C   0  0  0  0  0  0  0  0  0  0  0  0
    2.1535   -2.4615    1.1638 C   0  0  0  0  0  0  0  0  0  0  0  0
    0.7183   -1.9609    1.9989 Cl  0  0  0  0  0  0  0  0  0  0  0  0
    0.9366   -4.3726    0.4225 F   0  0  0  0  0  0  0  0  0  0  0  0
    5.9819   -1.4241    0.3623 Cl  0  0  0  0  0  0  0  0  0  0  0  0
    3.9331    0.6547    1.1284 O   0  0  0  0  0  0  0  0  0  0  0  0
    2.9979    1.6245    0.8746 C   0  0  0  0  0  0  0  0  0  0  0  0
    1.8625    1.3514    0.1137 C   0  0  0  0  0  0  0  0  0  0  0  0
    0.9398    2.3685   -0.1311 C   0  0  0  0  0  0  0  0  0  0  0  0
    1.2377    3.6292    0.3809 C   0  0  0  0  0  0  0  0  0  0  0  0
    2.3525    3.9296    1.0966 N   0  0  0  0  0  0  0  0  0  0  0  0
    3.2197    2.9282    1.3264 C   0  0  0  0  0  0  0  0  0  0  0  0
    4.3325    3.2385    2.1080 N   0  0  0  0  0  0  0  0  0  0  0  0
   -0.2761    2.1289   -0.8821 C   0  0  0  0  0  0  0  0  0  0  0  0
   -1.0394    2.9814   -1.7114 C   0  0  0  0  0  0  0  0  0  0  0  0
   -2.1213    2.3806   -2.2134 N   0  0  0  0  0  0  0  0  0  0  0  0
   -2.0662    1.1376   -1.6993 N   0  0  0  0  0  0  0  0  0  0  0  0
   -0.9758    0.9393   -0.8957 C   0  0  0  0  0  0  0  0  0  0  0  0
   -3.1012    0.1579   -2.0043 C   0  0  0  0  0  0  0  0  0  0  0  0
   -3.1438   -0.1936   -3.4954 C   0  0  0  0  0  0  0  0  0  0  0  0
   -4.2412   -1.2168   -3.7675 C   0  0  0  0  0  0  0  0  0  0  0  0
   -5.5400   -0.7485   -3.2898 N   0  0  0  0  0  0  0  0  0  0  0  0
   -5.5320   -0.4491   -1.8591 C   0  0  0  0  0  0  0  0  0  0  0  0
   -4.4825    0.6021   -1.5138 C   0  0  0  0  0  0  0  0  0  0  0  0
    5.3721   -0.6645    2.9657 H   0  0  0  0  0  0  0  0  0  0  0  0
    3.9895   -1.3408    3.8533 H   0  0  0  0  0  0  0  0  0  0  0  0
    4.2699    0.4123    3.7921 H   0  0  0  0  0  0  0  0  0  0  0  0
    2.4416   -0.1116    2.3586 H   0  0  0  0  0  0  0  0  0  0  0  0
    5.2164   -3.8136   -0.7922 H   0  0  0  0  0  0  0  0  0  0  0  0
    3.0903   -5.0935   -0.7968 H   0  0  0  0  0  0  0  0  0  0  0  0
    1.7106    0.3577   -0.2926 H   0  0  0  0  0  0  0  0  0  0  0  0
    0.5629    4.4700    0.2422 H   0  0  0  0  0  0  0  0  0  0  0  0
    5.1775    2.8713    1.6837 H   0  0  0  0  0  0  0  0  0  0  0  0
    4.3494    4.2459    2.2332 H   0  0  0  0  0  0  0  0  0  0  0  0
   -0.8510    4.0139   -1.9772 H   0  0  0  0  0  0  0  0  0  0  0  0
   -0.8074   -0.0075   -0.4014 H   0  0  0  0  0  0  0  0  0  0  0  0
   -2.8226   -0.7511   -1.4513 H   0  0  0  0  0  0  0  0  0  0  0  0
   -2.1754   -0.5965   -3.8186 H   0  0  0  0  0  0  0  0  0  0  0  0
   -3.3263    0.7069   -4.0990 H   0  0  0  0  0  0  0  0  0  0  0  0
   -4.3048   -1.3960   -4.8463 H   0  0  0  0  0  0  0  0  0  0  0  0
   -3.9917   -2.1763   -3.2975 H   0  0  0  0  0  0  0  0  0  0  0  0
   -6.2523   -1.4511   -3.4888 H   0  0  0  0  0  0  0  0  0  0  0  0
   -6.5217   -0.0770   -1.5707 H   0  0  0  0  0  0  0  0  0  0  0  0
   -5.3542   -1.3665   -1.2828 H   0  0  0  0  0  0  0  0  0  0  0  0
   -4.4657    0.7645   -0.4294 H   0  0  0  0  0  0  0  0  0  0  0  0
   -4.7624    1.5608   -1.9693 H   0  0  0  0  0  0  0  0  0  0  0  0
  1  2  1  0
  2  3  1  0
  3  4  2  0
  4  5  1  0
  5  6  2  0
  6  7  1  0
  7  8  2  0
  8  9  1  0
  7 10  1  0
  4 11  1  0
  2 12  1  0
 12 13  1  0
 13 14  2  0
 14 15  1  0
 15 16  2  0
 16 17  1  0
 17 18  2  0
 18 19  1  0
 15 20  1  0
 20 21  1  0
 21 22  2  0
 22 23  1  0
 23 24  1  0
 23 25  1  0
 25 26  1  0
 26 27  1  0
 27 28  1  0
 28 29  1  0
 29 30  1  0
  8  3  1  0
 18 13  1  0
 24 20  2  0
 30 25  1  0
  1 31  1  0
  1 32  1  0
  1 33  1  0
  2 34  1  1
  5 35  1  0
  6 36  1  0
 14 37  1  0
 16 38  1  0
 19 39  1  0
 19 40  1  0
 21 41  1  0
 24 42  1  0
 25 43  1  0
 26 44  1  0
 26 45  1  0
 27 46  1  0
 27 47  1  0
 28 48  1  0
 29 49  1  0
 29 50  1  0
 30 51  1  0
 30 52  1  0
M  END
>  <energy_abs>  (72) 
23.113214702799983

>  <SMILES>  (72) 
C[C@H](c1c(ccc(c1Cl)F)Cl)Oc2cc(cnc2N)c3cnn(c3)C4CCNCC4

>  <cluster_no>  (72) 
72

>  <fda_drugs_id>  (72) 
KTEIFNKAUNYNJU-GFCCVEGCSA-N

>  <initial_conformation_id>  (72) 
238

>  <minimize_method>  (72) 
MMFF

$$$$

     RDKit          3D

 52 55  0  0  0  0  0  0  0  0999 V2000
    3.4495   -0.5438    4.1556 C   0  0  0  0  0  0  0  0  0  0  0  0
    2.9242   -0.5115    2.7173 C   0  0  2  0  0  0  0  0  0  0  0  0
    3.5960   -1.5539    1.8277 C   0  0  0  0  0  0  0  0  0  0  0  0
    2.8580   -2.6529    1.3256 C   0  0  0  0  0  0  0  0  0  0  0  0
    3.4460   -3.6075    0.4831 C   0  0  0  0  0  0  0  0  0  0  0  0
    4.7848   -3.4966    0.1213 C   0  0  0  0  0  0  0  0  0  0  0  0
    5.5289   -2.4318    0.6053 C   0  0  0  0  0  0  0  0  0  0  0  0
    4.9565   -1.4672    1.4480 C   0  0  0  0  0  0  0  0  0  0  0  0
    6.0001   -0.1853    1.9682 Cl  0  0  0  0  0  0  0  0  0  0  0  0
    6.8208   -2.3464    0.2450 F   0  0  0  0  0  0  0  0  0  0  0  0
    1.1867   -2.9156    1.7016 Cl  0  0  0  0  0  0  0  0  0  0  0  0
    3.0798    0.8268    2.2037 O   0  0  0  0  0  0  0  0  0  0  0  0
    2.3918    1.1019    1.0448 C   0  0  0  0  0  0  0  0  0  0  0  0
    1.0499    0.7678    0.8487 C   0  0  0  0  0  0  0  0  0  0  0  0
    0.4258    1.0618   -0.3672 C   0  0  0  0  0  0  0  0  0  0  0  0
    1.1985    1.7142   -1.3236 C   0  0  0  0  0  0  0  0  0  0  0  0
    2.4884    2.0940   -1.1461 N   0  0  0  0  0  0  0  0  0  0  0  0
    3.0673    1.7971    0.0297 C   0  0  0  0  0  0  0  0  0  0  0  0
    4.3858    2.2430    0.2238 N   0  0  0  0  0  0  0  0  0  0  0  0
   -0.9629    0.6967   -0.6010 C   0  0  0  0  0  0  0  0  0  0  0  0
   -1.8082   -0.2177    0.0746 C   0  0  0  0  0  0  0  0  0  0  0  0
   -3.0434   -0.2576   -0.4264 N   0  0  0  0  0  0  0  0  0  0  0  0
   -3.0045    0.6328   -1.4344 N   0  0  0  0  0  0  0  0  0  0  0  0
   -1.7759    1.2209   -1.5833 C   0  0  0  0  0  0  0  0  0  0  0  0
   -4.2101    0.8814   -2.2150 C   0  0  0  0  0  0  0  0  0  0  0  0
   -4.6535    2.3460   -2.1323 C   0  0  0  0  0  0  0  0  0  0  0  0
   -5.8874    2.5816   -2.9929 C   0  0  0  0  0  0  0  0  0  0  0  0
   -5.6452    2.1711   -4.3743 N   0  0  0  0  0  0  0  0  0  0  0  0
   -5.3111    0.7504   -4.4680 C   0  0  0  0  0  0  0  0  0  0  0  0
   -4.0517    0.4328   -3.6705 C   0  0  0  0  0  0  0  0  0  0  0  0
    4.4929   -0.2210    4.2397 H   0  0  0  0  0  0  0  0  0  0  0  0
    2.8692    0.1495    4.7794 H   0  0  0  0  0  0  0  0  0  0  0  0
    3.3618   -1.5472    4.5843 H   0  0  0  0  0  0  0  0  0  0  0  0
    1.8562   -0.7136    2.8325 H   0  0  0  0  0  0  0  0  0  0  0  0
    2.8625   -4.4438    0.1029 H   0  0  0  0  0  0  0  0  0  0  0  0
    5.2511   -4.2278   -0.5342 H   0  0  0  0  0  0  0  0  0  0  0  0
    0.4775    0.3085    1.6466 H   0  0  0  0  0  0  0  0  0  0  0  0
    0.8012    1.9704   -2.3018 H   0  0  0  0  0  0  0  0  0  0  0  0
    4.3812    2.8830    1.0142 H   0  0  0  0  0  0  0  0  0  0  0  0
    4.9533    1.4526    0.5202 H   0  0  0  0  0  0  0  0  0  0  0  0
   -1.5775   -0.8585    0.9144 H   0  0  0  0  0  0  0  0  0  0  0  0
   -1.6049    1.9603   -2.3537 H   0  0  0  0  0  0  0  0  0  0  0  0
   -4.9987    0.2670   -1.7569 H   0  0  0  0  0  0  0  0  0  0  0  0
   -3.8485    3.0142   -2.4659 H   0  0  0  0  0  0  0  0  0  0  0  0
   -4.8703    2.6162   -1.0919 H   0  0  0  0  0  0  0  0  0  0  0  0
   -6.7512    2.0443   -2.5818 H   0  0  0  0  0  0  0  0  0  0  0  0
   -6.1345    3.6492   -2.9771 H   0  0  0  0  0  0  0  0  0  0  0  0
   -6.4784    2.3589   -4.9328 H   0  0  0  0  0  0  0  0  0  0  0  0
   -6.1524    0.1389   -4.1187 H   0  0  0  0  0  0  0  0  0  0  0  0
   -5.1439    0.4934   -5.5197 H   0  0  0  0  0  0  0  0  0  0  0  0
   -3.1904    0.9315   -4.1354 H   0  0  0  0  0  0  0  0  0  0  0  0
   -3.8509   -0.6448   -3.7140 H   0  0  0  0  0  0  0  0  0  0  0  0
  1  2  1  0
  2  3  1  0
  3  4  2  0
  4  5  1  0
  5  6  2  0
  6  7  1  0
  7  8  2  0
  8  9  1  0
  7 10  1  0
  4 11  1  0
  2 12  1  0
 12 13  1  0
 13 14  2  0
 14 15  1  0
 15 16  2  0
 16 17  1  0
 17 18  2  0
 18 19  1  0
 15 20  1  0
 20 21  1  0
 21 22  2  0
 22 23  1  0
 23 24  1  0
 23 25  1  0
 25 26  1  0
 26 27  1  0
 27 28  1  0
 28 29  1  0
 29 30  1  0
  8  3  1  0
 18 13  1  0
 24 20  2  0
 30 25  1  0
  1 31  1  0
  1 32  1  0
  1 33  1  0
  2 34  1  1
  5 35  1  0
  6 36  1  0
 14 37  1  0
 16 38  1  0
 19 39  1  0
 19 40  1  0
 21 41  1  0
 24 42  1  0
 25 43  1  0
 26 44  1  0
 26 45  1  0
 27 46  1  0
 27 47  1  0
 28 48  1  0
 29 49  1  0
 29 50  1  0
 30 51  1  0
 30 52  1  0
M  END
>  <energy_abs>  (73) 
31.60895374571605

>  <SMILES>  (73) 
C[C@H](c1c(ccc(c1Cl)F)Cl)Oc2cc(cnc2N)c3cnn(c3)C4CCNCC4

>  <cluster_no>  (73) 
73

>  <fda_drugs_id>  (73) 
KTEIFNKAUNYNJU-GFCCVEGCSA-N

>  <initial_conformation_id>  (73) 
237

>  <minimize_method>  (73) 
MMFF

$$$$

     RDKit          3D

 52 55  0  0  0  0  0  0  0  0999 V2000
    2.5035   -0.0716    2.7808 C   0  0  0  0  0  0  0  0  0  0  0  0
    2.8702   -0.9303    1.5661 C   0  0  2  0  0  0  0  0  0  0  0  0
    4.0307   -1.8702    1.8974 C   0  0  0  0  0  0  0  0  0  0  0  0
    3.7847   -3.2363    2.1781 C   0  0  0  0  0  0  0  0  0  0  0  0
    4.8276   -4.1274    2.4719 C   0  0  0  0  0  0  0  0  0  0  0  0
    6.1412   -3.6782    2.5100 C   0  0  0  0  0  0  0  0  0  0  0  0
    6.4051   -2.3386    2.2629 C   0  0  0  0  0  0  0  0  0  0  0  0
    5.3750   -1.4344    1.9652 C   0  0  0  0  0  0  0  0  0  0  0  0
    5.8468    0.2161    1.7313 Cl  0  0  0  0  0  0  0  0  0  0  0  0
    7.6805   -1.9252    2.3331 F   0  0  0  0  0  0  0  0  0  0  0  0
    2.1895   -3.9113    2.2169 Cl  0  0  0  0  0  0  0  0  0  0  0  0
    3.2235   -0.1282    0.4315 O   0  0  0  0  0  0  0  0  0  0  0  0
    2.2541    0.5904   -0.2198 C   0  0  0  0  0  0  0  0  0  0  0  0
    0.8976    0.2618   -0.2670 C   0  0  0  0  0  0  0  0  0  0  0  0
    0.0135    1.0518   -1.0101 C   0  0  0  0  0  0  0  0  0  0  0  0
    0.5510    2.1452   -1.6852 C   0  0  0  0  0  0  0  0  0  0  0  0
    1.8612    2.4873   -1.6723 N   0  0  0  0  0  0  0  0  0  0  0  0
    2.6886    1.7099   -0.9492 C   0  0  0  0  0  0  0  0  0  0  0  0
    4.0154    2.1326   -0.8918 N   0  0  0  0  0  0  0  0  0  0  0  0
   -1.4017    0.7368   -1.0651 C   0  0  0  0  0  0  0  0  0  0  0  0
   -2.2417    0.0916   -0.1335 C   0  0  0  0  0  0  0  0  0  0  0  0
   -3.4967   -0.0287   -0.5688 N   0  0  0  0  0  0  0  0  0  0  0  0
   -3.4834    0.5612   -1.7836 N   0  0  0  0  0  0  0  0  0  0  0  0
   -2.2364    1.0049   -2.1329 C   0  0  0  0  0  0  0  0  0  0  0  0
   -4.7294    0.5868   -2.5508 C   0  0  0  0  0  0  0  0  0  0  0  0
   -4.6153    1.1111   -3.9933 C   0  0  0  0  0  0  0  0  0  0  0  0
   -4.5424    2.6376   -4.0625 C   0  0  0  0  0  0  0  0  0  0  0  0
   -5.6309    3.2788   -3.3311 N   0  0  0  0  0  0  0  0  0  0  0  0
   -5.6560    2.8591   -1.9293 C   0  0  0  0  0  0  0  0  0  0  0  0
   -5.8409    1.3500   -1.8101 C   0  0  0  0  0  0  0  0  0  0  0  0
    3.2931    0.6435    3.0307 H   0  0  0  0  0  0  0  0  0  0  0  0
    2.3090   -0.6917    3.6634 H   0  0  0  0  0  0  0  0  0  0  0  0
    1.6050    0.5226    2.5828 H   0  0  0  0  0  0  0  0  0  0  0  0
    2.0108   -1.5395    1.2869 H   0  0  0  0  0  0  0  0  0  0  0  0
    4.6158   -5.1743    2.6878 H   0  0  0  0  0  0  0  0  0  0  0  0
    6.9575   -4.3556    2.7426 H   0  0  0  0  0  0  0  0  0  0  0  0
    0.5133   -0.6164    0.2402 H   0  0  0  0  0  0  0  0  0  0  0  0
   -0.0727    2.8163   -2.2709 H   0  0  0  0  0  0  0  0  0  0  0  0
    4.6601    1.3563   -0.9860 H   0  0  0  0  0  0  0  0  0  0  0  0
    4.1485    2.8787   -1.5668 H   0  0  0  0  0  0  0  0  0  0  0  0
   -1.9942   -0.2952    0.8462 H   0  0  0  0  0  0  0  0  0  0  0  0
   -2.0366    1.4606   -3.0896 H   0  0  0  0  0  0  0  0  0  0  0  0
   -5.0205   -0.4716   -2.6104 H   0  0  0  0  0  0  0  0  0  0  0  0
   -5.5055    0.7846   -4.5490 H   0  0  0  0  0  0  0  0  0  0  0  0
   -3.7561    0.6680   -4.5100 H   0  0  0  0  0  0  0  0  0  0  0  0
   -3.5851    3.0090   -3.6820 H   0  0  0  0  0  0  0  0  0  0  0  0
   -4.5920    2.9519   -5.1121 H   0  0  0  0  0  0  0  0  0  0  0  0
   -6.5237    3.0527   -3.7707 H   0  0  0  0  0  0  0  0  0  0  0  0
   -4.7403    3.1838   -1.4209 H   0  0  0  0  0  0  0  0  0  0  0  0
   -6.4870    3.3675   -1.4280 H   0  0  0  0  0  0  0  0  0  0  0  0
   -5.8879    1.0698   -0.7512 H   0  0  0  0  0  0  0  0  0  0  0  0
   -6.8107    1.0728   -2.2447 H   0  0  0  0  0  0  0  0  0  0  0  0
  1  2  1  0
  2  3  1  0
  3  4  2  0
  4  5  1  0
  5  6  2  0
  6  7  1  0
  7  8  2  0
  8  9  1  0
  7 10  1  0
  4 11  1  0
  2 12  1  0
 12 13  1  0
 13 14  2  0
 14 15  1  0
 15 16  2  0
 16 17  1  0
 17 18  2  0
 18 19  1  0
 15 20  1  0
 20 21  1  0
 21 22  2  0
 22 23  1  0
 23 24  1  0
 23 25  1  0
 25 26  1  0
 26 27  1  0
 27 28  1  0
 28 29  1  0
 29 30  1  0
  8  3  1  0
 18 13  1  0
 24 20  2  0
 30 25  1  0
  1 31  1  0
  1 32  1  0
  1 33  1  0
  2 34  1  6
  5 35  1  0
  6 36  1  0
 14 37  1  0
 16 38  1  0
 19 39  1  0
 19 40  1  0
 21 41  1  0
 24 42  1  0
 25 43  1  0
 26 44  1  0
 26 45  1  0
 27 46  1  0
 27 47  1  0
 28 48  1  0
 29 49  1  0
 29 50  1  0
 30 51  1  0
 30 52  1  0
M  END
>  <energy_abs>  (74) 
28.49773592137873

>  <SMILES>  (74) 
C[C@H](c1c(ccc(c1Cl)F)Cl)Oc2cc(cnc2N)c3cnn(c3)C4CCNCC4

>  <cluster_no>  (74) 
74

>  <fda_drugs_id>  (74) 
KTEIFNKAUNYNJU-GFCCVEGCSA-N

>  <initial_conformation_id>  (74) 
235

>  <minimize_method>  (74) 
MMFF

$$$$

     RDKit          3D

 52 55  0  0  0  0  0  0  0  0999 V2000
    1.9725   -2.0049    2.6814 C   0  0  0  0  0  0  0  0  0  0  0  0
    2.8297   -1.5619    1.4931 C   0  0  2  0  0  0  0  0  0  0  0  0
    4.3088   -1.8548    1.7333 C   0  0  0  0  0  0  0  0  0  0  0  0
    4.9383   -2.9421    1.0818 C   0  0  0  0  0  0  0  0  0  0  0  0
    6.2971   -3.2302    1.2781 C   0  0  0  0  0  0  0  0  0  0  0  0
    7.0622   -2.4516    2.1365 C   0  0  0  0  0  0  0  0  0  0  0  0
    6.4635   -1.3914    2.8004 C   0  0  0  0  0  0  0  0  0  0  0  0
    5.1072   -1.0870    2.6147 C   0  0  0  0  0  0  0  0  0  0  0  0
    4.4877    0.2512    3.5251 Cl  0  0  0  0  0  0  0  0  0  0  0  0
    7.2206   -0.6592    3.6322 F   0  0  0  0  0  0  0  0  0  0  0  0
    4.0930   -4.0011    0.0039 Cl  0  0  0  0  0  0  0  0  0  0  0  0
    2.6450   -0.1530    1.2537 O   0  0  0  0  0  0  0  0  0  0  0  0
    1.9060    0.0896    0.1253 C   0  0  0  0  0  0  0  0  0  0  0  0
    0.5263    0.2496    0.2443 C   0  0  0  0  0  0  0  0  0  0  0  0
   -0.2344    0.5269   -0.8922 C   0  0  0  0  0  0  0  0  0  0  0  0
    0.4605    0.6352   -2.0952 C   0  0  0  0  0  0  0  0  0  0  0  0
    1.8065    0.5098   -2.2295 N   0  0  0  0  0  0  0  0  0  0  0  0
    2.5199    0.2618   -1.1205 C   0  0  0  0  0  0  0  0  0  0  0  0
    3.9133    0.1635   -1.2563 N   0  0  0  0  0  0  0  0  0  0  0  0
   -1.6756    0.6881   -0.8068 C   0  0  0  0  0  0  0  0  0  0  0  0
   -2.5903    0.3076    0.2029 C   0  0  0  0  0  0  0  0  0  0  0  0
   -3.8502    0.6420   -0.0819 N   0  0  0  0  0  0  0  0  0  0  0  0
   -3.7578    1.2448   -1.2829 N   0  0  0  0  0  0  0  0  0  0  0  0
   -2.4732    1.2988   -1.7534 C   0  0  0  0  0  0  0  0  0  0  0  0
   -4.9663    1.7745   -1.9094 C   0  0  0  0  0  0  0  0  0  0  0  0
   -5.2232    1.1555   -3.2904 C   0  0  0  0  0  0  0  0  0  0  0  0
   -5.9285    2.1451   -4.2061 C   0  0  0  0  0  0  0  0  0  0  0  0
   -5.1082    3.3299   -4.4321 N   0  0  0  0  0  0  0  0  0  0  0  0
   -4.4761    3.8855   -3.2383 C   0  0  0  0  0  0  0  0  0  0  0  0
   -4.9893    3.3100   -1.9229 C   0  0  0  0  0  0  0  0  0  0  0  0
    0.9095   -1.8649    2.4576 H   0  0  0  0  0  0  0  0  0  0  0  0
    2.1347   -3.0621    2.9166 H   0  0  0  0  0  0  0  0  0  0  0  0
    2.1740   -1.4177    3.5821 H   0  0  0  0  0  0  0  0  0  0  0  0
    2.4729   -2.1201    0.6212 H   0  0  0  0  0  0  0  0  0  0  0  0
    6.7629   -4.0687    0.7628 H   0  0  0  0  0  0  0  0  0  0  0  0
    8.1143   -2.6658    2.2983 H   0  0  0  0  0  0  0  0  0  0  0  0
    0.0678    0.1735    1.2249 H   0  0  0  0  0  0  0  0  0  0  0  0
   -0.0505    0.8316   -3.0339 H   0  0  0  0  0  0  0  0  0  0  0  0
    4.2074   -0.7727   -1.0053 H   0  0  0  0  0  0  0  0  0  0  0  0
    4.3356    0.8046   -0.5886 H   0  0  0  0  0  0  0  0  0  0  0  0
   -2.3934   -0.2042    1.1360 H   0  0  0  0  0  0  0  0  0  0  0  0
   -2.2479    1.7622   -2.7034 H   0  0  0  0  0  0  0  0  0  0  0  0
   -5.7895    1.4589   -1.2518 H   0  0  0  0  0  0  0  0  0  0  0  0
   -4.2928    0.8257   -3.7693 H   0  0  0  0  0  0  0  0  0  0  0  0
   -5.8361    0.2529   -3.1767 H   0  0  0  0  0  0  0  0  0  0  0  0
   -6.1310    1.6690   -5.1717 H   0  0  0  0  0  0  0  0  0  0  0  0
   -6.8998    2.4304   -3.7836 H   0  0  0  0  0  0  0  0  0  0  0  0
   -5.6539    4.0446   -4.9139 H   0  0  0  0  0  0  0  0  0  0  0  0
   -4.6176    4.9727   -3.2330 H   0  0  0  0  0  0  0  0  0  0  0  0
   -3.3960    3.7243   -3.3184 H   0  0  0  0  0  0  0  0  0  0  0  0
   -4.4183    3.7259   -1.0841 H   0  0  0  0  0  0  0  0  0  0  0  0
   -6.0257    3.6461   -1.7824 H   0  0  0  0  0  0  0  0  0  0  0  0
  1  2  1  0
  2  3  1  0
  3  4  2  0
  4  5  1  0
  5  6  2  0
  6  7  1  0
  7  8  2  0
  8  9  1  0
  7 10  1  0
  4 11  1  0
  2 12  1  0
 12 13  1  0
 13 14  2  0
 14 15  1  0
 15 16  2  0
 16 17  1  0
 17 18  2  0
 18 19  1  0
 15 20  1  0
 20 21  1  0
 21 22  2  0
 22 23  1  0
 23 24  1  0
 23 25  1  0
 25 26  1  0
 26 27  1  0
 27 28  1  0
 28 29  1  0
 29 30  1  0
  8  3  1  0
 18 13  1  0
 24 20  2  0
 30 25  1  0
  1 31  1  0
  1 32  1  0
  1 33  1  0
  2 34  1  6
  5 35  1  0
  6 36  1  0
 14 37  1  0
 16 38  1  0
 19 39  1  0
 19 40  1  0
 21 41  1  0
 24 42  1  0
 25 43  1  0
 26 44  1  0
 26 45  1  0
 27 46  1  0
 27 47  1  0
 28 48  1  0
 29 49  1  0
 29 50  1  0
 30 51  1  0
 30 52  1  0
M  END
>  <energy_abs>  (75) 
40.66085700500828

>  <SMILES>  (75) 
C[C@H](c1c(ccc(c1Cl)F)Cl)Oc2cc(cnc2N)c3cnn(c3)C4CCNCC4

>  <cluster_no>  (75) 
75

>  <fda_drugs_id>  (75) 
KTEIFNKAUNYNJU-GFCCVEGCSA-N

>  <initial_conformation_id>  (75) 
234

>  <minimize_method>  (75) 
MMFF

$$$$

     RDKit          3D

 52 55  0  0  0  0  0  0  0  0999 V2000
    4.7857   -3.3964    1.5475 C   0  0  0  0  0  0  0  0  0  0  0  0
    3.8895   -2.4174    0.7843 C   0  0  2  0  0  0  0  0  0  0  0  0
    4.0145   -0.9976    1.3336 C   0  0  0  0  0  0  0  0  0  0  0  0
    4.7583   -0.0226    0.6265 C   0  0  0  0  0  0  0  0  0  0  0  0
    4.8707    1.2938    1.0936 C   0  0  0  0  0  0  0  0  0  0  0  0
    4.2519    1.6744    2.2786 C   0  0  0  0  0  0  0  0  0  0  0  0
    3.5361    0.7312    3.0012 C   0  0  0  0  0  0  0  0  0  0  0  0
    3.4185   -0.5925    2.5519 C   0  0  0  0  0  0  0  0  0  0  0  0
    2.5132   -1.6736    3.5588 Cl  0  0  0  0  0  0  0  0  0  0  0  0
    2.9435    1.1228    4.1373 F   0  0  0  0  0  0  0  0  0  0  0  0
    5.5986   -0.3718   -0.8472 Cl  0  0  0  0  0  0  0  0  0  0  0  0
    2.5360   -2.9240    0.8288 O   0  0  0  0  0  0  0  0  0  0  0  0
    1.8089   -2.5378   -0.2691 C   0  0  0  0  0  0  0  0  0  0  0  0
    0.9720   -1.4270   -0.1592 C   0  0  0  0  0  0  0  0  0  0  0  0
    0.1994   -1.0350   -1.2513 C   0  0  0  0  0  0  0  0  0  0  0  0
    0.3172   -1.8061   -2.4054 C   0  0  0  0  0  0  0  0  0  0  0  0
    1.0973   -2.9116   -2.5254 N   0  0  0  0  0  0  0  0  0  0  0  0
    1.8144   -3.2848   -1.4533 C   0  0  0  0  0  0  0  0  0  0  0  0
    2.5588   -4.4698   -1.5607 N   0  0  0  0  0  0  0  0  0  0  0  0
   -0.6806    0.1173   -1.1697 C   0  0  0  0  0  0  0  0  0  0  0  0
   -0.7023    1.2031   -0.2608 C   0  0  0  0  0  0  0  0  0  0  0  0
   -1.6953    2.0637   -0.5004 N   0  0  0  0  0  0  0  0  0  0  0  0
   -2.3292    1.5294   -1.5605 N   0  0  0  0  0  0  0  0  0  0  0  0
   -1.7551    0.3665   -2.0006 C   0  0  0  0  0  0  0  0  0  0  0  0
   -3.5211    2.1669   -2.1106 C   0  0  0  0  0  0  0  0  0  0  0  0
   -4.6163    2.3831   -1.0516 C   0  0  0  0  0  0  0  0  0  0  0  0
   -4.7090    3.8483   -0.6451 C   0  0  0  0  0  0  0  0  0  0  0  0
   -5.0137    4.7254   -1.7762 N   0  0  0  0  0  0  0  0  0  0  0  0
   -4.4119    4.3180   -3.0428 C   0  0  0  0  0  0  0  0  0  0  0  0
   -3.1650    3.4565   -2.8632 C   0  0  0  0  0  0  0  0  0  0  0  0
    4.7277   -4.3918    1.0909 H   0  0  0  0  0  0  0  0  0  0  0  0
    5.8322   -3.0726    1.5392 H   0  0  0  0  0  0  0  0  0  0  0  0
    4.4752   -3.5209    2.5888 H   0  0  0  0  0  0  0  0  0  0  0  0
    4.2281   -2.4572   -0.2565 H   0  0  0  0  0  0  0  0  0  0  0  0
    5.4416    2.0319    0.5303 H   0  0  0  0  0  0  0  0  0  0  0  0
    4.3279    2.6925    2.6483 H   0  0  0  0  0  0  0  0  0  0  0  0
    0.9162   -0.8964    0.7853 H   0  0  0  0  0  0  0  0  0  0  0  0
   -0.2304   -1.5626   -3.3112 H   0  0  0  0  0  0  0  0  0  0  0  0
    2.2659   -5.0913   -0.8096 H   0  0  0  0  0  0  0  0  0  0  0  0
    3.5414   -4.2720   -1.4207 H   0  0  0  0  0  0  0  0  0  0  0  0
   -0.0352    1.4051    0.5685 H   0  0  0  0  0  0  0  0  0  0  0  0
   -2.1703   -0.1762   -2.8394 H   0  0  0  0  0  0  0  0  0  0  0  0
   -3.9215    1.4474   -2.8383 H   0  0  0  0  0  0  0  0  0  0  0  0
   -4.4590    1.7539   -0.1690 H   0  0  0  0  0  0  0  0  0  0  0  0
   -5.5830    2.0783   -1.4741 H   0  0  0  0  0  0  0  0  0  0  0  0
   -3.7696    4.1735   -0.1825 H   0  0  0  0  0  0  0  0  0  0  0  0
   -5.4850    3.9753    0.1195 H   0  0  0  0  0  0  0  0  0  0  0  0
   -6.0219    4.8240   -1.8902 H   0  0  0  0  0  0  0  0  0  0  0  0
   -4.1657    5.2162   -3.6171 H   0  0  0  0  0  0  0  0  0  0  0  0
   -5.1502    3.7593   -3.6305 H   0  0  0  0  0  0  0  0  0  0  0  0
   -2.7339    3.2048   -3.8414 H   0  0  0  0  0  0  0  0  0  0  0  0
   -2.3951    4.0335   -2.3294 H   0  0  0  0  0  0  0  0  0  0  0  0
  1  2  1  0
  2  3  1  0
  3  4  2  0
  4  5  1  0
  5  6  2  0
  6  7  1  0
  7  8  2  0
  8  9  1  0
  7 10  1  0
  4 11  1  0
  2 12  1  0
 12 13  1  0
 13 14  2  0
 14 15  1  0
 15 16  2  0
 16 17  1  0
 17 18  2  0
 18 19  1  0
 15 20  1  0
 20 21  1  0
 21 22  2  0
 22 23  1  0
 23 24  1  0
 23 25  1  0
 25 26  1  0
 26 27  1  0
 27 28  1  0
 28 29  1  0
 29 30  1  0
  8  3  1  0
 18 13  1  0
 24 20  2  0
 30 25  1  0
  1 31  1  0
  1 32  1  0
  1 33  1  0
  2 34  1  6
  5 35  1  0
  6 36  1  0
 14 37  1  0
 16 38  1  0
 19 39  1  0
 19 40  1  0
 21 41  1  0
 24 42  1  0
 25 43  1  0
 26 44  1  0
 26 45  1  0
 27 46  1  0
 27 47  1  0
 28 48  1  0
 29 49  1  0
 29 50  1  0
 30 51  1  0
 30 52  1  0
M  END
>  <energy_abs>  (76) 
40.30550926649094

>  <SMILES>  (76) 
C[C@H](c1c(ccc(c1Cl)F)Cl)Oc2cc(cnc2N)c3cnn(c3)C4CCNCC4

>  <cluster_no>  (76) 
76

>  <fda_drugs_id>  (76) 
KTEIFNKAUNYNJU-GFCCVEGCSA-N

>  <initial_conformation_id>  (76) 
233

>  <minimize_method>  (76) 
MMFF

$$$$

     RDKit          3D

 52 55  0  0  0  0  0  0  0  0999 V2000
    2.9189    0.0094    3.6473 C   0  0  0  0  0  0  0  0  0  0  0  0
    2.9118   -0.5471    2.2213 C   0  0  2  0  0  0  0  0  0  0  0  0
    4.0702   -1.5131    1.9992 C   0  0  0  0  0  0  0  0  0  0  0  0
    3.8403   -2.9088    1.9785 C   0  0  0  0  0  0  0  0  0  0  0  0
    4.8821   -3.8219    1.7598 C   0  0  0  0  0  0  0  0  0  0  0  0
    6.1808   -3.3696    1.5648 C   0  0  0  0  0  0  0  0  0  0  0  0
    6.4327   -2.0063    1.5973 C   0  0  0  0  0  0  0  0  0  0  0  0
    5.4033   -1.0795    1.8155 C   0  0  0  0  0  0  0  0  0  0  0  0
    5.8644    0.5915    1.8510 Cl  0  0  0  0  0  0  0  0  0  0  0  0
    7.6977   -1.5938    1.4196 F   0  0  0  0  0  0  0  0  0  0  0  0
    2.2756   -3.6030    2.2460 Cl  0  0  0  0  0  0  0  0  0  0  0  0
    2.9451    0.5671    1.3058 O   0  0  0  0  0  0  0  0  0  0  0  0
    2.1000    0.3736    0.2435 C   0  0  0  0  0  0  0  0  0  0  0  0
    0.7620    0.7484    0.3626 C   0  0  0  0  0  0  0  0  0  0  0  0
   -0.0967    0.5841   -0.7250 C   0  0  0  0  0  0  0  0  0  0  0  0
    0.4596    0.0527   -1.8875 C   0  0  0  0  0  0  0  0  0  0  0  0
    1.7651   -0.2936   -2.0373 N   0  0  0  0  0  0  0  0  0  0  0  0
    2.5712   -0.1119   -0.9781 C   0  0  0  0  0  0  0  0  0  0  0  0
    3.9050   -0.4816   -1.1521 N   0  0  0  0  0  0  0  0  0  0  0  0
   -1.4990    0.9463   -0.6313 C   0  0  0  0  0  0  0  0  0  0  0  0
   -2.3419    1.0917    0.4948 C   0  0  0  0  0  0  0  0  0  0  0  0
   -3.5850    1.4525    0.1699 N   0  0  0  0  0  0  0  0  0  0  0  0
   -3.5531    1.5395   -1.1735 N   0  0  0  0  0  0  0  0  0  0  0  0
   -2.3220    1.2495   -1.6968 C   0  0  0  0  0  0  0  0  0  0  0  0
   -4.7613    1.9363   -1.8912 C   0  0  0  0  0  0  0  0  0  0  0  0
   -5.2228    0.8570   -2.8804 C   0  0  0  0  0  0  0  0  0  0  0  0
   -6.0654    1.4781   -3.9851 C   0  0  0  0  0  0  0  0  0  0  0  0
   -5.3013    2.4365   -4.7802 N   0  0  0  0  0  0  0  0  0  0  0  0
   -4.3264    3.2253   -4.0303 C   0  0  0  0  0  0  0  0  0  0  0  0
   -4.6258    3.3234   -2.5394 C   0  0  0  0  0  0  0  0  0  0  0  0
    2.0510    0.6603    3.8003 H   0  0  0  0  0  0  0  0  0  0  0  0
    3.8011    0.6239    3.8492 H   0  0  0  0  0  0  0  0  0  0  0  0
    2.8841   -0.7945    4.3898 H   0  0  0  0  0  0  0  0  0  0  0  0
    1.9512   -1.0613    2.1089 H   0  0  0  0  0  0  0  0  0  0  0  0
    4.6823   -4.8914    1.7420 H   0  0  0  0  0  0  0  0  0  0  0  0
    6.9958   -4.0659    1.3936 H   0  0  0  0  0  0  0  0  0  0  0  0
    0.4138    1.1739    1.2985 H   0  0  0  0  0  0  0  0  0  0  0  0
   -0.1428   -0.1287   -2.7736 H   0  0  0  0  0  0  0  0  0  0  0  0
    4.5205    0.2602   -0.8313 H   0  0  0  0  0  0  0  0  0  0  0  0
    4.0318   -0.7018   -2.1359 H   0  0  0  0  0  0  0  0  0  0  0  0
   -2.1044    0.9453    1.5407 H   0  0  0  0  0  0  0  0  0  0  0  0
   -2.1450    1.2875   -2.7621 H   0  0  0  0  0  0  0  0  0  0  0  0
   -5.5378    2.0278   -1.1179 H   0  0  0  0  0  0  0  0  0  0  0  0
   -5.8048    0.0956   -2.3464 H   0  0  0  0  0  0  0  0  0  0  0  0
   -4.3736    0.3273   -3.3307 H   0  0  0  0  0  0  0  0  0  0  0  0
   -6.9417    1.9736   -3.5494 H   0  0  0  0  0  0  0  0  0  0  0  0
   -6.4430    0.6925   -4.6489 H   0  0  0  0  0  0  0  0  0  0  0  0
   -5.9424    3.0476   -5.2876 H   0  0  0  0  0  0  0  0  0  0  0  0
   -4.2756    4.2320   -4.4609 H   0  0  0  0  0  0  0  0  0  0  0  0
   -3.3360    2.7822   -4.1817 H   0  0  0  0  0  0  0  0  0  0  0  0
   -5.5722    3.8664   -2.4127 H   0  0  0  0  0  0  0  0  0  0  0  0
   -3.8584    3.9272   -2.0402 H   0  0  0  0  0  0  0  0  0  0  0  0
  1  2  1  0
  2  3  1  0
  3  4  2  0
  4  5  1  0
  5  6  2  0
  6  7  1  0
  7  8  2  0
  8  9  1  0
  7 10  1  0
  4 11  1  0
  2 12  1  0
 12 13  1  0
 13 14  2  0
 14 15  1  0
 15 16  2  0
 16 17  1  0
 17 18  2  0
 18 19  1  0
 15 20  1  0
 20 21  1  0
 21 22  2  0
 22 23  1  0
 23 24  1  0
 23 25  1  0
 25 26  1  0
 26 27  1  0
 27 28  1  0
 28 29  1  0
 29 30  1  0
  8  3  1  0
 18 13  1  0
 24 20  2  0
 30 25  1  0
  1 31  1  0
  1 32  1  0
  1 33  1  0
  2 34  1  6
  5 35  1  0
  6 36  1  0
 14 37  1  0
 16 38  1  0
 19 39  1  0
 19 40  1  0
 21 41  1  0
 24 42  1  0
 25 43  1  0
 26 44  1  0
 26 45  1  0
 27 46  1  0
 27 47  1  0
 28 48  1  0
 29 49  1  0
 29 50  1  0
 30 51  1  0
 30 52  1  0
M  END
>  <energy_abs>  (77) 
28.560698999531297

>  <SMILES>  (77) 
C[C@H](c1c(ccc(c1Cl)F)Cl)Oc2cc(cnc2N)c3cnn(c3)C4CCNCC4

>  <cluster_no>  (77) 
77

>  <fda_drugs_id>  (77) 
KTEIFNKAUNYNJU-GFCCVEGCSA-N

>  <initial_conformation_id>  (77) 
231

>  <minimize_method>  (77) 
MMFF

$$$$

     RDKit          3D

 52 55  0  0  0  0  0  0  0  0999 V2000
    5.4629   -0.1206    2.4220 C   0  0  0  0  0  0  0  0  0  0  0  0
    3.9880   -0.3653    2.0995 C   0  0  2  0  0  0  0  0  0  0  0  0
    3.8158   -1.3846    0.9719 C   0  0  0  0  0  0  0  0  0  0  0  0
    3.3585   -2.6955    1.2558 C   0  0  0  0  0  0  0  0  0  0  0  0
    3.1646   -3.6405    0.2371 C   0  0  0  0  0  0  0  0  0  0  0  0
    3.4287   -3.3120   -1.0890 C   0  0  0  0  0  0  0  0  0  0  0  0
    3.8971   -2.0382   -1.3878 C   0  0  0  0  0  0  0  0  0  0  0  0
    4.0947   -1.0792   -0.3832 C   0  0  0  0  0  0  0  0  0  0  0  0
    4.6790    0.4663   -0.9015 Cl  0  0  0  0  0  0  0  0  0  0  0  0
    4.1546   -1.7417   -2.6764 F   0  0  0  0  0  0  0  0  0  0  0  0
    3.0215   -3.2440    2.8666 Cl  0  0  0  0  0  0  0  0  0  0  0  0
    3.3857    0.9117    1.7781 O   0  0  0  0  0  0  0  0  0  0  0  0
    2.0339    0.9243    2.0128 C   0  0  0  0  0  0  0  0  0  0  0  0
    1.1845    0.9648    0.9110 C   0  0  0  0  0  0  0  0  0  0  0  0
   -0.1957    0.9821    1.1072 C   0  0  0  0  0  0  0  0  0  0  0  0
   -0.6493    0.9822    2.4245 C   0  0  0  0  0  0  0  0  0  0  0  0
    0.1572    0.9871    3.5165 N   0  0  0  0  0  0  0  0  0  0  0  0
    1.4846    0.9814    3.2977 C   0  0  0  0  0  0  0  0  0  0  0  0
    2.2929    1.0179    4.4355 N   0  0  0  0  0  0  0  0  0  0  0  0
   -1.1213    0.9922   -0.0073 C   0  0  0  0  0  0  0  0  0  0  0  0
   -2.3909    0.3913   -0.1632 C   0  0  0  0  0  0  0  0  0  0  0  0
   -2.9409    0.6545   -1.3518 N   0  0  0  0  0  0  0  0  0  0  0  0
   -2.0253    1.4343   -1.9675 N   0  0  0  0  0  0  0  0  0  0  0  0
   -0.9142    1.6575   -1.2006 C   0  0  0  0  0  0  0  0  0  0  0  0
   -2.2633    1.9694   -3.3097 C   0  0  0  0  0  0  0  0  0  0  0  0
   -2.0075    0.9144   -4.3920 C   0  0  0  0  0  0  0  0  0  0  0  0
   -3.1094   -0.1509   -4.4456 C   0  0  0  0  0  0  0  0  0  0  0  0
   -4.4315    0.3219   -4.0200 N   0  0  0  0  0  0  0  0  0  0  0  0
   -4.6108    1.7458   -4.2938 C   0  0  0  0  0  0  0  0  0  0  0  0
   -3.6592    2.6060   -3.4580 C   0  0  0  0  0  0  0  0  0  0  0  0
    5.9681   -1.0415    2.7344 H   0  0  0  0  0  0  0  0  0  0  0  0
    5.5544    0.6217    3.2280 H   0  0  0  0  0  0  0  0  0  0  0  0
    6.0075    0.2873    1.5648 H   0  0  0  0  0  0  0  0  0  0  0  0
    3.5471   -0.7377    3.0268 H   0  0  0  0  0  0  0  0  0  0  0  0
    2.8101   -4.6378    0.4766 H   0  0  0  0  0  0  0  0  0  0  0  0
    3.2806   -4.0352   -1.8869 H   0  0  0  0  0  0  0  0  0  0  0  0
    1.6076    0.9646   -0.0892 H   0  0  0  0  0  0  0  0  0  0  0  0
   -1.7106    0.9981    2.6576 H   0  0  0  0  0  0  0  0  0  0  0  0
    2.9819    1.7615    4.3522 H   0  0  0  0  0  0  0  0  0  0  0  0
    1.6760    1.1461    5.2358 H   0  0  0  0  0  0  0  0  0  0  0  0
   -2.9372   -0.2314    0.5362 H   0  0  0  0  0  0  0  0  0  0  0  0
   -0.0961    2.2706   -1.5582 H   0  0  0  0  0  0  0  0  0  0  0  0
   -1.5208    2.7707   -3.4285 H   0  0  0  0  0  0  0  0  0  0  0  0
   -1.9616    1.4245   -5.3634 H   0  0  0  0  0  0  0  0  0  0  0  0
   -1.0333    0.4280   -4.2480 H   0  0  0  0  0  0  0  0  0  0  0  0
   -2.8278   -1.0092   -3.8189 H   0  0  0  0  0  0  0  0  0  0  0  0
   -3.1815   -0.5391   -5.4691 H   0  0  0  0  0  0  0  0  0  0  0  0
   -4.4766    0.1914   -2.9979 H   0  0  0  0  0  0  0  0  0  0  0  0
   -5.6466    2.0296   -4.0699 H   0  0  0  0  0  0  0  0  0  0  0  0
   -4.4676    1.9446   -5.3634 H   0  0  0  0  0  0  0  0  0  0  0  0
   -4.1049    2.8158   -2.4767 H   0  0  0  0  0  0  0  0  0  0  0  0
   -3.5582    3.5773   -3.9588 H   0  0  0  0  0  0  0  0  0  0  0  0
  1  2  1  0
  2  3  1  0
  3  4  2  0
  4  5  1  0
  5  6  2  0
  6  7  1  0
  7  8  2  0
  8  9  1  0
  7 10  1  0
  4 11  1  0
  2 12  1  0
 12 13  1  0
 13 14  2  0
 14 15  1  0
 15 16  2  0
 16 17  1  0
 17 18  2  0
 18 19  1  0
 15 20  1  0
 20 21  1  0
 21 22  2  0
 22 23  1  0
 23 24  1  0
 23 25  1  0
 25 26  1  0
 26 27  1  0
 27 28  1  0
 28 29  1  0
 29 30  1  0
  8  3  1  0
 18 13  1  0
 24 20  2  0
 30 25  1  0
  1 31  1  0
  1 32  1  0
  1 33  1  0
  2 34  1  1
  5 35  1  0
  6 36  1  0
 14 37  1  0
 16 38  1  0
 19 39  1  0
 19 40  1  0
 21 41  1  0
 24 42  1  0
 25 43  1  0
 26 44  1  0
 26 45  1  0
 27 46  1  0
 27 47  1  0
 28 48  1  0
 29 49  1  0
 29 50  1  0
 30 51  1  0
 30 52  1  0
M  END
>  <energy_abs>  (78) 
27.963442149909493

>  <SMILES>  (78) 
C[C@H](c1c(ccc(c1Cl)F)Cl)Oc2cc(cnc2N)c3cnn(c3)C4CCNCC4

>  <cluster_no>  (78) 
78

>  <fda_drugs_id>  (78) 
KTEIFNKAUNYNJU-GFCCVEGCSA-N

>  <initial_conformation_id>  (78) 
230

>  <minimize_method>  (78) 
MMFF

$$$$

     RDKit          3D

 52 55  0  0  0  0  0  0  0  0999 V2000
    1.8556   -2.6158    0.5117 C   0  0  0  0  0  0  0  0  0  0  0  0
    2.7766   -1.3941    0.4554 C   0  0  2  0  0  0  0  0  0  0  0  0
    4.2404   -1.8283    0.3681 C   0  0  0  0  0  0  0  0  0  0  0  0
    4.9137   -1.8163   -0.8769 C   0  0  0  0  0  0  0  0  0  0  0  0
    6.2601   -2.1926   -0.9888 C   0  0  0  0  0  0  0  0  0  0  0  0
    6.9672   -2.6055    0.1330 C   0  0  0  0  0  0  0  0  0  0  0  0
    6.3213   -2.6529    1.3592 C   0  0  0  0  0  0  0  0  0  0  0  0
    4.9756   -2.2797    1.4903 C   0  0  0  0  0  0  0  0  0  0  0  0
    4.2843   -2.4328    3.0733 Cl  0  0  0  0  0  0  0  0  0  0  0  0
    7.0199   -3.0775    2.4235 F   0  0  0  0  0  0  0  0  0  0  0  0
    4.1316   -1.3687   -2.3568 Cl  0  0  0  0  0  0  0  0  0  0  0  0
    2.6020   -0.5613    1.6065 O   0  0  0  0  0  0  0  0  0  0  0  0
    1.5817    0.3494    1.6662 C   0  0  0  0  0  0  0  0  0  0  0  0
    0.6248    0.5843    0.6783 C   0  0  0  0  0  0  0  0  0  0  0  0
   -0.3570    1.5619    0.8765 C   0  0  0  0  0  0  0  0  0  0  0  0
   -0.3240    2.2626    2.0775 C   0  0  0  0  0  0  0  0  0  0  0  0
    0.5852    2.0576    3.0578 N   0  0  0  0  0  0  0  0  0  0  0  0
    1.5175    1.1126    2.8476 C   0  0  0  0  0  0  0  0  0  0  0  0
    2.4625    0.9038    3.8716 N   0  0  0  0  0  0  0  0  0  0  0  0
   -1.3647    1.8518   -0.1255 C   0  0  0  0  0  0  0  0  0  0  0  0
   -2.0452    3.0538   -0.4273 C   0  0  0  0  0  0  0  0  0  0  0  0
   -2.9248    2.9133   -1.4208 N   0  0  0  0  0  0  0  0  0  0  0  0
   -2.8232    1.6150   -1.7592 N   0  0  0  0  0  0  0  0  0  0  0  0
   -1.8964    0.9379   -1.0124 C   0  0  0  0  0  0  0  0  0  0  0  0
   -3.6572    1.0562   -2.8158 C   0  0  0  0  0  0  0  0  0  0  0  0
   -5.1500    1.1492   -2.4835 C   0  0  0  0  0  0  0  0  0  0  0  0
   -5.9836    0.5628   -3.6178 C   0  0  0  0  0  0  0  0  0  0  0  0
   -5.6778    1.2053   -4.8930 N   0  0  0  0  0  0  0  0  0  0  0  0
   -4.2665    1.0892   -5.2512 C   0  0  0  0  0  0  0  0  0  0  0  0
   -3.3649    1.6915   -4.1785 C   0  0  0  0  0  0  0  0  0  0  0  0
    2.0118   -3.2719   -0.3518 H   0  0  0  0  0  0  0  0  0  0  0  0
    2.0131   -3.2057    1.4202 H   0  0  0  0  0  0  0  0  0  0  0  0
    0.8029   -2.3150    0.5244 H   0  0  0  0  0  0  0  0  0  0  0  0
    2.5412   -0.7993   -0.4290 H   0  0  0  0  0  0  0  0  0  0  0  0
    6.7613   -2.1686   -1.9549 H   0  0  0  0  0  0  0  0  0  0  0  0
    8.0099   -2.9003    0.0596 H   0  0  0  0  0  0  0  0  0  0  0  0
    0.6278    0.0333   -0.2540 H   0  0  0  0  0  0  0  0  0  0  0  0
   -1.0557    3.0317    2.3108 H   0  0  0  0  0  0  0  0  0  0  0  0
    3.3857    1.0422    3.4695 H   0  0  0  0  0  0  0  0  0  0  0  0
    2.4246   -0.0805    4.1275 H   0  0  0  0  0  0  0  0  0  0  0  0
   -1.9338    4.0288    0.0304 H   0  0  0  0  0  0  0  0  0  0  0  0
   -1.7160   -0.1168   -1.1654 H   0  0  0  0  0  0  0  0  0  0  0  0
   -3.3905   -0.0091   -2.8743 H   0  0  0  0  0  0  0  0  0  0  0  0
   -5.3646    0.6125   -1.5511 H   0  0  0  0  0  0  0  0  0  0  0  0
   -5.4428    2.1948   -2.3180 H   0  0  0  0  0  0  0  0  0  0  0  0
   -5.8169   -0.5184   -3.6926 H   0  0  0  0  0  0  0  0  0  0  0  0
   -7.0456    0.7074   -3.3935 H   0  0  0  0  0  0  0  0  0  0  0  0
   -6.2552    0.7995   -5.6298 H   0  0  0  0  0  0  0  0  0  0  0  0
   -4.0066    0.0368   -5.4186 H   0  0  0  0  0  0  0  0  0  0  0  0
   -4.0967    1.6140   -6.1979 H   0  0  0  0  0  0  0  0  0  0  0  0
   -2.3137    1.5368   -4.4509 H   0  0  0  0  0  0  0  0  0  0  0  0
   -3.5199    2.7784   -4.1382 H   0  0  0  0  0  0  0  0  0  0  0  0
  1  2  1  0
  2  3  1  0
  3  4  2  0
  4  5  1  0
  5  6  2  0
  6  7  1  0
  7  8  2  0
  8  9  1  0
  7 10  1  0
  4 11  1  0
  2 12  1  0
 12 13  1  0
 13 14  2  0
 14 15  1  0
 15 16  2  0
 16 17  1  0
 17 18  2  0
 18 19  1  0
 15 20  1  0
 20 21  1  0
 21 22  2  0
 22 23  1  0
 23 24  1  0
 23 25  1  0
 25 26  1  0
 26 27  1  0
 27 28  1  0
 28 29  1  0
 29 30  1  0
  8  3  1  0
 18 13  1  0
 24 20  2  0
 30 25  1  0
  1 31  1  0
  1 32  1  0
  1 33  1  0
  2 34  1  6
  5 35  1  0
  6 36  1  0
 14 37  1  0
 16 38  1  0
 19 39  1  0
 19 40  1  0
 21 41  1  0
 24 42  1  0
 25 43  1  0
 26 44  1  0
 26 45  1  0
 27 46  1  0
 27 47  1  0
 28 48  1  0
 29 49  1  0
 29 50  1  0
 30 51  1  0
 30 52  1  0
M  END
>  <energy_abs>  (79) 
33.789555775681016

>  <SMILES>  (79) 
C[C@H](c1c(ccc(c1Cl)F)Cl)Oc2cc(cnc2N)c3cnn(c3)C4CCNCC4

>  <cluster_no>  (79) 
79

>  <fda_drugs_id>  (79) 
KTEIFNKAUNYNJU-GFCCVEGCSA-N

>  <initial_conformation_id>  (79) 
229

>  <minimize_method>  (79) 
MMFF

$$$$

     RDKit          3D

 52 55  0  0  0  0  0  0  0  0999 V2000
    4.7510   -1.2659    3.4458 C   0  0  0  0  0  0  0  0  0  0  0  0
    3.5646   -1.1452    2.4877 C   0  0  2  0  0  0  0  0  0  0  0  0
    3.9687   -1.5073    1.0608 C   0  0  0  0  0  0  0  0  0  0  0  0
    3.6185   -2.7675    0.5198 C   0  0  0  0  0  0  0  0  0  0  0  0
    3.9693   -3.1282   -0.7900 C   0  0  0  0  0  0  0  0  0  0  0  0
    4.6841   -2.2474   -1.5928 C   0  0  0  0  0  0  0  0  0  0  0  0
    5.0511   -1.0114   -1.0798 C   0  0  0  0  0  0  0  0  0  0  0  0
    4.7140   -0.6369    0.2305 C   0  0  0  0  0  0  0  0  0  0  0  0
    5.2627    0.9214    0.7545 Cl  0  0  0  0  0  0  0  0  0  0  0  0
    5.7444   -0.1787   -1.8713 F   0  0  0  0  0  0  0  0  0  0  0  0
    2.7511   -3.9638    1.4251 Cl  0  0  0  0  0  0  0  0  0  0  0  0
    3.0497    0.1983    2.5996 O   0  0  0  0  0  0  0  0  0  0  0  0
    1.6897    0.2425    2.4189 C   0  0  0  0  0  0  0  0  0  0  0  0
    1.1807    0.4641    1.1396 C   0  0  0  0  0  0  0  0  0  0  0  0
   -0.1996    0.5476    0.9491 C   0  0  0  0  0  0  0  0  0  0  0  0
   -0.9904    0.4108    2.0894 C   0  0  0  0  0  0  0  0  0  0  0  0
   -0.5170    0.2247    3.3495 N   0  0  0  0  0  0  0  0  0  0  0  0
    0.8143    0.1635    3.5082 C   0  0  0  0  0  0  0  0  0  0  0  0
    1.3047    0.0316    4.8166 N   0  0  0  0  0  0  0  0  0  0  0  0
   -0.7601    0.7776   -0.3737 C   0  0  0  0  0  0  0  0  0  0  0  0
   -0.1265    0.9155   -1.6334 C   0  0  0  0  0  0  0  0  0  0  0  0
   -0.9855    1.1305   -2.6316 N   0  0  0  0  0  0  0  0  0  0  0  0
   -2.1843    1.1343   -2.0244 N   0  0  0  0  0  0  0  0  0  0  0  0
   -2.1004    0.9261   -0.6715 C   0  0  0  0  0  0  0  0  0  0  0  0
   -3.4043    1.3753   -2.7849 C   0  0  0  0  0  0  0  0  0  0  0  0
   -3.5611    2.8604   -3.1349 C   0  0  0  0  0  0  0  0  0  0  0  0
   -4.8402    3.0880   -3.9332 C   0  0  0  0  0  0  0  0  0  0  0  0
   -4.8802    2.2446   -5.1285 N   0  0  0  0  0  0  0  0  0  0  0  0
   -4.7843    0.8197   -4.8081 C   0  0  0  0  0  0  0  0  0  0  0  0
   -3.5000    0.5087   -4.0480 C   0  0  0  0  0  0  0  0  0  0  0  0
    4.4224   -1.0698    4.4725 H   0  0  0  0  0  0  0  0  0  0  0  0
    5.1987   -2.2635    3.4113 H   0  0  0  0  0  0  0  0  0  0  0  0
    5.5333   -0.5311    3.2290 H   0  0  0  0  0  0  0  0  0  0  0  0
    2.7994   -1.8353    2.8665 H   0  0  0  0  0  0  0  0  0  0  0  0
    3.6866   -4.1012   -1.1881 H   0  0  0  0  0  0  0  0  0  0  0  0
    4.9641   -2.5184   -2.6094 H   0  0  0  0  0  0  0  0  0  0  0  0
    1.8717    0.5866    0.3121 H   0  0  0  0  0  0  0  0  0  0  0  0
   -2.0744    0.4549    2.0428 H   0  0  0  0  0  0  0  0  0  0  0  0
    1.9463    0.8053    4.9857 H   0  0  0  0  0  0  0  0  0  0  0  0
    1.8456   -0.8246    4.8869 H   0  0  0  0  0  0  0  0  0  0  0  0
    0.9284    0.8708   -1.8707 H   0  0  0  0  0  0  0  0  0  0  0  0
   -2.9914    0.9137   -0.0601 H   0  0  0  0  0  0  0  0  0  0  0  0
   -4.2324    1.0898   -2.1171 H   0  0  0  0  0  0  0  0  0  0  0  0
   -3.5872    3.4659   -2.2180 H   0  0  0  0  0  0  0  0  0  0  0  0
   -2.6959    3.2106   -3.7176 H   0  0  0  0  0  0  0  0  0  0  0  0
   -5.7203    2.8942   -3.3046 H   0  0  0  0  0  0  0  0  0  0  0  0
   -4.8898    4.1406   -4.2384 H   0  0  0  0  0  0  0  0  0  0  0  0
   -5.7403    2.4237   -5.6467 H   0  0  0  0  0  0  0  0  0  0  0  0
   -4.7977    0.2427   -5.7423 H   0  0  0  0  0  0  0  0  0  0  0  0
   -5.6587    0.5027   -4.2229 H   0  0  0  0  0  0  0  0  0  0  0  0
   -2.6380    0.6886   -4.7064 H   0  0  0  0  0  0  0  0  0  0  0  0
   -3.4737   -0.5557   -3.7831 H   0  0  0  0  0  0  0  0  0  0  0  0
  1  2  1  0
  2  3  1  0
  3  4  2  0
  4  5  1  0
  5  6  2  0
  6  7  1  0
  7  8  2  0
  8  9  1  0
  7 10  1  0
  4 11  1  0
  2 12  1  0
 12 13  1  0
 13 14  2  0
 14 15  1  0
 15 16  2  0
 16 17  1  0
 17 18  2  0
 18 19  1  0
 15 20  1  0
 20 21  1  0
 21 22  2  0
 22 23  1  0
 23 24  1  0
 23 25  1  0
 25 26  1  0
 26 27  1  0
 27 28  1  0
 28 29  1  0
 29 30  1  0
  8  3  1  0
 18 13  1  0
 24 20  2  0
 30 25  1  0
  1 31  1  0
  1 32  1  0
  1 33  1  0
  2 34  1  1
  5 35  1  0
  6 36  1  0
 14 37  1  0
 16 38  1  0
 19 39  1  0
 19 40  1  0
 21 41  1  0
 24 42  1  0
 25 43  1  0
 26 44  1  0
 26 45  1  0
 27 46  1  0
 27 47  1  0
 28 48  1  0
 29 49  1  0
 29 50  1  0
 30 51  1  0
 30 52  1  0
M  END
>  <energy_abs>  (80) 
34.39462149555881

>  <SMILES>  (80) 
C[C@H](c1c(ccc(c1Cl)F)Cl)Oc2cc(cnc2N)c3cnn(c3)C4CCNCC4

>  <cluster_no>  (80) 
80

>  <fda_drugs_id>  (80) 
KTEIFNKAUNYNJU-GFCCVEGCSA-N

>  <initial_conformation_id>  (80) 
228

>  <minimize_method>  (80) 
MMFF

$$$$

     RDKit          3D

 52 55  0  0  0  0  0  0  0  0999 V2000
    3.7532   -0.0765   -0.8119 C   0  0  0  0  0  0  0  0  0  0  0  0
    3.6671   -0.5565    0.6430 C   0  0  2  0  0  0  0  0  0  0  0  0
    4.7575   -1.5721    0.9704 C   0  0  0  0  0  0  0  0  0  0  0  0
    4.7918   -2.8624    0.3841 C   0  0  0  0  0  0  0  0  0  0  0  0
    5.8208   -3.7738    0.6830 C   0  0  0  0  0  0  0  0  0  0  0  0
    6.8372   -3.4279    1.5666 C   0  0  0  0  0  0  0  0  0  0  0  0
    6.8149   -2.1748    2.1611 C   0  0  0  0  0  0  0  0  0  0  0  0
    5.7926   -1.2545    1.8840 C   0  0  0  0  0  0  0  0  0  0  0  0
    5.8588    0.2602    2.7309 Cl  0  0  0  0  0  0  0  0  0  0  0  0
    7.8049   -1.8543    3.0061 F   0  0  0  0  0  0  0  0  0  0  0  0
    3.5958   -3.4259   -0.7357 Cl  0  0  0  0  0  0  0  0  0  0  0  0
    2.3993   -1.1641    0.9548 O   0  0  0  0  0  0  0  0  0  0  0  0
    1.3874   -0.2508    1.0958 C   0  0  0  0  0  0  0  0  0  0  0  0
    0.5011   -0.0953    0.0310 C   0  0  0  0  0  0  0  0  0  0  0  0
   -0.5645    0.7979    0.1462 C   0  0  0  0  0  0  0  0  0  0  0  0
   -0.6849    1.4767    1.3558 C   0  0  0  0  0  0  0  0  0  0  0  0
    0.1448    1.3137    2.4196 N   0  0  0  0  0  0  0  0  0  0  0  0
    1.1561    0.4366    2.2937 C   0  0  0  0  0  0  0  0  0  0  0  0
    1.9412    0.2088    3.4287 N   0  0  0  0  0  0  0  0  0  0  0  0
   -1.5042    0.9821   -0.9433 C   0  0  0  0  0  0  0  0  0  0  0  0
   -1.9038    0.1019   -1.9732 C   0  0  0  0  0  0  0  0  0  0  0  0
   -2.7938    0.6500   -2.8045 N   0  0  0  0  0  0  0  0  0  0  0  0
   -2.9791    1.8892   -2.3127 N   0  0  0  0  0  0  0  0  0  0  0  0
   -2.2119    2.1408   -1.2029 C   0  0  0  0  0  0  0  0  0  0  0  0
   -3.9023    2.8346   -2.9401 C   0  0  0  0  0  0  0  0  0  0  0  0
   -5.2222    2.9295   -2.1614 C   0  0  0  0  0  0  0  0  0  0  0  0
   -6.1755    1.7888   -2.5078 C   0  0  0  0  0  0  0  0  0  0  0  0
   -6.4385    1.7357   -3.9487 N   0  0  0  0  0  0  0  0  0  0  0  0
   -5.1977    1.4889   -4.6859 C   0  0  0  0  0  0  0  0  0  0  0  0
   -4.1611    2.5861   -4.4379 C   0  0  0  0  0  0  0  0  0  0  0  0
    4.7874    0.1274   -1.1118 H   0  0  0  0  0  0  0  0  0  0  0  0
    3.1840    0.8540   -0.9404 H   0  0  0  0  0  0  0  0  0  0  0  0
    3.3137   -0.7877   -1.5173 H   0  0  0  0  0  0  0  0  0  0  0  0
    3.7866    0.3330    1.2650 H   0  0  0  0  0  0  0  0  0  0  0  0
    5.8315   -4.7588    0.2200 H   0  0  0  0  0  0  0  0  0  0  0  0
    7.6410   -4.1230    1.7972 H   0  0  0  0  0  0  0  0  0  0  0  0
    0.6597   -0.6680   -0.8795 H   0  0  0  0  0  0  0  0  0  0  0  0
   -1.4920    2.1832    1.5356 H   0  0  0  0  0  0  0  0  0  0  0  0
    1.8991   -0.7804    3.6544 H   0  0  0  0  0  0  0  0  0  0  0  0
    2.9107    0.4347    3.2464 H   0  0  0  0  0  0  0  0  0  0  0  0
   -1.5879   -0.9185   -2.1510 H   0  0  0  0  0  0  0  0  0  0  0  0
   -2.2387    3.1101   -0.7138 H   0  0  0  0  0  0  0  0  0  0  0  0
   -3.3870    3.8039   -2.8573 H   0  0  0  0  0  0  0  0  0  0  0  0
   -5.0442    2.9394   -1.0789 H   0  0  0  0  0  0  0  0  0  0  0  0
   -5.7088    3.8841   -2.4049 H   0  0  0  0  0  0  0  0  0  0  0  0
   -5.7824    0.8257   -2.1571 H   0  0  0  0  0  0  0  0  0  0  0  0
   -7.1261    1.9424   -1.9851 H   0  0  0  0  0  0  0  0  0  0  0  0
   -6.8578    2.6123   -4.2621 H   0  0  0  0  0  0  0  0  0  0  0  0
   -4.8049    0.5006   -4.4304 H   0  0  0  0  0  0  0  0  0  0  0  0
   -5.4336    1.4512   -5.7564 H   0  0  0  0  0  0  0  0  0  0  0  0
   -4.5361    3.5219   -4.8795 H   0  0  0  0  0  0  0  0  0  0  0  0
   -3.2290    2.3486   -4.9630 H   0  0  0  0  0  0  0  0  0  0  0  0
  1  2  1  0
  2  3  1  0
  3  4  2  0
  4  5  1  0
  5  6  2  0
  6  7  1  0
  7  8  2  0
  8  9  1  0
  7 10  1  0
  4 11  1  0
  2 12  1  0
 12 13  1  0
 13 14  2  0
 14 15  1  0
 15 16  2  0
 16 17  1  0
 17 18  2  0
 18 19  1  0
 15 20  1  0
 20 21  1  0
 21 22  2  0
 22 23  1  0
 23 24  1  0
 23 25  1  0
 25 26  1  0
 26 27  1  0
 27 28  1  0
 28 29  1  0
 29 30  1  0
  8  3  1  0
 18 13  1  0
 24 20  2  0
 30 25  1  0
  1 31  1  0
  1 32  1  0
  1 33  1  0
  2 34  1  1
  5 35  1  0
  6 36  1  0
 14 37  1  0
 16 38  1  0
 19 39  1  0
 19 40  1  0
 21 41  1  0
 24 42  1  0
 25 43  1  0
 26 44  1  0
 26 45  1  0
 27 46  1  0
 27 47  1  0
 28 48  1  0
 29 49  1  0
 29 50  1  0
 30 51  1  0
 30 52  1  0
M  END
>  <energy_abs>  (81) 
37.143733891292456

>  <SMILES>  (81) 
C[C@H](c1c(ccc(c1Cl)F)Cl)Oc2cc(cnc2N)c3cnn(c3)C4CCNCC4

>  <cluster_no>  (81) 
81

>  <fda_drugs_id>  (81) 
KTEIFNKAUNYNJU-GFCCVEGCSA-N

>  <initial_conformation_id>  (81) 
227

>  <minimize_method>  (81) 
MMFF

$$$$

     RDKit          3D

 52 55  0  0  0  0  0  0  0  0999 V2000
    2.4167   -3.5567    0.9938 C   0  0  0  0  0  0  0  0  0  0  0  0
    2.8039   -2.0840    0.8447 C   0  0  2  0  0  0  0  0  0  0  0  0
    4.3185   -1.8966    0.8550 C   0  0  0  0  0  0  0  0  0  0  0  0
    5.0153   -1.6531   -0.3528 C   0  0  0  0  0  0  0  0  0  0  0  0
    6.4059   -1.4714   -0.3743 C   0  0  0  0  0  0  0  0  0  0  0  0
    7.1403   -1.5378    0.8025 C   0  0  0  0  0  0  0  0  0  0  0  0
    6.4820   -1.7936    1.9955 C   0  0  0  0  0  0  0  0  0  0  0  0
    5.0925   -1.9771    2.0363 C   0  0  0  0  0  0  0  0  0  0  0  0
    4.4056   -2.3110    3.5922 Cl  0  0  0  0  0  0  0  0  0  0  0  0
    7.2138   -1.8654    3.1179 F   0  0  0  0  0  0  0  0  0  0  0  0
    4.2243   -1.5838   -1.8917 Cl  0  0  0  0  0  0  0  0  0  0  0  0
    2.1883   -1.3379    1.9115 O   0  0  0  0  0  0  0  0  0  0  0  0
    1.5202   -0.2163    1.4933 C   0  0  0  0  0  0  0  0  0  0  0  0
    0.3919   -0.3058    0.6767 C   0  0  0  0  0  0  0  0  0  0  0  0
   -0.2856    0.8576    0.3078 C   0  0  0  0  0  0  0  0  0  0  0  0
    0.2140    2.0578    0.8074 C   0  0  0  0  0  0  0  0  0  0  0  0
    1.2932    2.1685    1.6223 N   0  0  0  0  0  0  0  0  0  0  0  0
    1.9213    1.0356    1.9754 C   0  0  0  0  0  0  0  0  0  0  0  0
    3.0233    1.1473    2.8397 N   0  0  0  0  0  0  0  0  0  0  0  0
   -1.4615    0.8010   -0.5411 C   0  0  0  0  0  0  0  0  0  0  0  0
   -2.3695   -0.2542   -0.7921 C   0  0  0  0  0  0  0  0  0  0  0  0
   -3.3321    0.0824   -1.6523 N   0  0  0  0  0  0  0  0  0  0  0  0
   -3.0536    1.3625   -1.9590 N   0  0  0  0  0  0  0  0  0  0  0  0
   -1.9372    1.8348   -1.3221 C   0  0  0  0  0  0  0  0  0  0  0  0
   -3.9023    2.1073   -2.8807 C   0  0  0  0  0  0  0  0  0  0  0  0
   -5.3253    2.2797   -2.3415 C   0  0  0  0  0  0  0  0  0  0  0  0
   -6.1820    3.0538   -3.3383 C   0  0  0  0  0  0  0  0  0  0  0  0
   -6.1794    2.4169   -4.6533 N   0  0  0  0  0  0  0  0  0  0  0  0
   -4.8325    2.2885   -5.2045 C   0  0  0  0  0  0  0  0  0  0  0  0
   -3.9253    1.4837   -4.2794 C   0  0  0  0  0  0  0  0  0  0  0  0
    2.7134   -3.9701    1.9617 H   0  0  0  0  0  0  0  0  0  0  0  0
    2.8692   -4.1681    0.2066 H   0  0  0  0  0  0  0  0  0  0  0  0
    1.3280   -3.6655    0.9358 H   0  0  0  0  0  0  0  0  0  0  0  0
    2.3913   -1.7546   -0.1131 H   0  0  0  0  0  0  0  0  0  0  0  0
    6.9226   -1.2821   -1.3137 H   0  0  0  0  0  0  0  0  0  0  0  0
    8.2176   -1.4013    0.7979 H   0  0  0  0  0  0  0  0  0  0  0  0
    0.0489   -1.2796    0.3412 H   0  0  0  0  0  0  0  0  0  0  0  0
   -0.2585    3.0097    0.5819 H   0  0  0  0  0  0  0  0  0  0  0  0
    2.8594    0.5251    3.6293 H   0  0  0  0  0  0  0  0  0  0  0  0
    3.8442    0.7880    2.3646 H   0  0  0  0  0  0  0  0  0  0  0  0
   -2.3752   -1.2550   -0.3797 H   0  0  0  0  0  0  0  0  0  0  0  0
   -1.5874    2.8445   -1.4858 H   0  0  0  0  0  0  0  0  0  0  0  0
   -3.4489    3.1052   -2.9633 H   0  0  0  0  0  0  0  0  0  0  0  0
   -5.3045    2.8102   -1.3820 H   0  0  0  0  0  0  0  0  0  0  0  0
   -5.7840    1.3011   -2.1481 H   0  0  0  0  0  0  0  0  0  0  0  0
   -7.2119    3.0978   -2.9679 H   0  0  0  0  0  0  0  0  0  0  0  0
   -5.8278    4.0886   -3.4207 H   0  0  0  0  0  0  0  0  0  0  0  0
   -6.7632    2.9538   -5.2952 H   0  0  0  0  0  0  0  0  0  0  0  0
   -4.8930    1.7842   -6.1750 H   0  0  0  0  0  0  0  0  0  0  0  0
   -4.4047    3.2820   -5.3869 H   0  0  0  0  0  0  0  0  0  0  0  0
   -4.2804    0.4457   -4.2321 H   0  0  0  0  0  0  0  0  0  0  0  0
   -2.9108    1.4484   -4.6948 H   0  0  0  0  0  0  0  0  0  0  0  0
  1  2  1  0
  2  3  1  0
  3  4  2  0
  4  5  1  0
  5  6  2  0
  6  7  1  0
  7  8  2  0
  8  9  1  0
  7 10  1  0
  4 11  1  0
  2 12  1  0
 12 13  1  0
 13 14  2  0
 14 15  1  0
 15 16  2  0
 16 17  1  0
 17 18  2  0
 18 19  1  0
 15 20  1  0
 20 21  1  0
 21 22  2  0
 22 23  1  0
 23 24  1  0
 23 25  1  0
 25 26  1  0
 26 27  1  0
 27 28  1  0
 28 29  1  0
 29 30  1  0
  8  3  1  0
 18 13  1  0
 24 20  2  0
 30 25  1  0
  1 31  1  0
  1 32  1  0
  1 33  1  0
  2 34  1  6
  5 35  1  0
  6 36  1  0
 14 37  1  0
 16 38  1  0
 19 39  1  0
 19 40  1  0
 21 41  1  0
 24 42  1  0
 25 43  1  0
 26 44  1  0
 26 45  1  0
 27 46  1  0
 27 47  1  0
 28 48  1  0
 29 49  1  0
 29 50  1  0
 30 51  1  0
 30 52  1  0
M  END
>  <energy_abs>  (82) 
33.80306380291207

>  <SMILES>  (82) 
C[C@H](c1c(ccc(c1Cl)F)Cl)Oc2cc(cnc2N)c3cnn(c3)C4CCNCC4

>  <cluster_no>  (82) 
82

>  <fda_drugs_id>  (82) 
KTEIFNKAUNYNJU-GFCCVEGCSA-N

>  <initial_conformation_id>  (82) 
226

>  <minimize_method>  (82) 
MMFF

$$$$

     RDKit          3D

 52 55  0  0  0  0  0  0  0  0999 V2000
    4.7363   -1.7668    3.2877 C   0  0  0  0  0  0  0  0  0  0  0  0
    3.5372   -1.5285    2.3675 C   0  0  2  0  0  0  0  0  0  0  0  0
    3.9636   -1.4713    0.9014 C   0  0  0  0  0  0  0  0  0  0  0  0
    3.7064   -2.5670    0.0416 C   0  0  0  0  0  0  0  0  0  0  0  0
    4.0463   -2.5279   -1.3197 C   0  0  0  0  0  0  0  0  0  0  0  0
    4.6451   -1.3984   -1.8593 C   0  0  0  0  0  0  0  0  0  0  0  0
    4.9323   -0.3246   -1.0276 C   0  0  0  0  0  0  0  0  0  0  0  0
    4.6148   -0.3516    0.3375 C   0  0  0  0  0  0  0  0  0  0  0  0
    5.0562    1.0444    1.2674 Cl  0  0  0  0  0  0  0  0  0  0  0  0
    5.5338    0.7477   -1.5671 F   0  0  0  0  0  0  0  0  0  0  0  0
    2.9765   -4.0363    0.5937 Cl  0  0  0  0  0  0  0  0  0  0  0  0
    2.8688   -0.3277    2.8098 O   0  0  0  0  0  0  0  0  0  0  0  0
    1.5287   -0.3533    2.5136 C   0  0  0  0  0  0  0  0  0  0  0  0
    1.0913    0.1543    1.2903 C   0  0  0  0  0  0  0  0  0  0  0  0
   -0.2686    0.1303    0.9800 C   0  0  0  0  0  0  0  0  0  0  0  0
   -1.1208   -0.3873    1.9528 C   0  0  0  0  0  0  0  0  0  0  0  0
   -0.7222   -0.8493    3.1686 N   0  0  0  0  0  0  0  0  0  0  0  0
    0.5910   -0.8144    3.4462 C   0  0  0  0  0  0  0  0  0  0  0  0
    0.9979   -1.2614    4.7145 N   0  0  0  0  0  0  0  0  0  0  0  0
   -0.7461    0.6200   -0.2993 C   0  0  0  0  0  0  0  0  0  0  0  0
   -0.0748    0.7674   -1.5368 C   0  0  0  0  0  0  0  0  0  0  0  0
   -0.8590    1.2557   -2.4991 N   0  0  0  0  0  0  0  0  0  0  0  0
   -2.0361    1.4656   -1.8716 N   0  0  0  0  0  0  0  0  0  0  0  0
   -2.0250    1.0734   -0.5591 C   0  0  0  0  0  0  0  0  0  0  0  0
   -3.1716    2.0192   -2.5993 C   0  0  0  0  0  0  0  0  0  0  0  0
   -2.7743    3.1063   -3.6077 C   0  0  0  0  0  0  0  0  0  0  0  0
   -4.0166    3.6976   -4.2765 C   0  0  0  0  0  0  0  0  0  0  0  0
   -5.1070    2.7424   -4.4971 N   0  0  0  0  0  0  0  0  0  0  0  0
   -4.6218    1.3668   -4.5905 C   0  0  0  0  0  0  0  0  0  0  0  0
   -3.9971    0.9070   -3.2731 C   0  0  0  0  0  0  0  0  0  0  0  0
    5.4154   -0.9100    3.3162 H   0  0  0  0  0  0  0  0  0  0  0  0
    5.3115   -2.6495    2.9880 H   0  0  0  0  0  0  0  0  0  0  0  0
    4.3988   -1.9140    4.3175 H   0  0  0  0  0  0  0  0  0  0  0  0
    2.8586   -2.3700    2.5452 H   0  0  0  0  0  0  0  0  0  0  0  0
    3.8364   -3.3818   -1.9647 H   0  0  0  0  0  0  0  0  0  0  0  0
    4.8962   -1.3493   -2.9139 H   0  0  0  0  0  0  0  0  0  0  0  0
    1.8122    0.5815    0.6006 H   0  0  0  0  0  0  0  0  0  0  0  0
   -2.1922   -0.4560    1.7933 H   0  0  0  0  0  0  0  0  0  0  0  0
    1.6331   -2.0432    4.6060 H   0  0  0  0  0  0  0  0  0  0  0  0
    1.5220   -0.5088    5.1554 H   0  0  0  0  0  0  0  0  0  0  0  0
    0.9537    0.5301   -1.7845 H   0  0  0  0  0  0  0  0  0  0  0  0
   -2.9103    1.1622    0.0582 H   0  0  0  0  0  0  0  0  0  0  0  0
   -3.8020    2.4975   -1.8311 H   0  0  0  0  0  0  0  0  0  0  0  0
   -2.1181    2.6814   -4.3837 H   0  0  0  0  0  0  0  0  0  0  0  0
   -2.2014    3.9058   -3.1166 H   0  0  0  0  0  0  0  0  0  0  0  0
   -4.4015    4.5279   -3.6699 H   0  0  0  0  0  0  0  0  0  0  0  0
   -3.7256    4.1339   -5.2403 H   0  0  0  0  0  0  0  0  0  0  0  0
   -5.7900    2.8190   -3.7436 H   0  0  0  0  0  0  0  0  0  0  0  0
   -3.8986    1.2787   -5.4141 H   0  0  0  0  0  0  0  0  0  0  0  0
   -5.4579    0.7026   -4.8475 H   0  0  0  0  0  0  0  0  0  0  0  0
   -4.7874    0.5874   -2.5787 H   0  0  0  0  0  0  0  0  0  0  0  0
   -3.3860    0.0162   -3.4712 H   0  0  0  0  0  0  0  0  0  0  0  0
  1  2  1  0
  2  3  1  0
  3  4  2  0
  4  5  1  0
  5  6  2  0
  6  7  1  0
  7  8  2  0
  8  9  1  0
  7 10  1  0
  4 11  1  0
  2 12  1  0
 12 13  1  0
 13 14  2  0
 14 15  1  0
 15 16  2  0
 16 17  1  0
 17 18  2  0
 18 19  1  0
 15 20  1  0
 20 21  1  0
 21 22  2  0
 22 23  1  0
 23 24  1  0
 23 25  1  0
 25 26  1  0
 26 27  1  0
 27 28  1  0
 28 29  1  0
 29 30  1  0
  8  3  1  0
 18 13  1  0
 24 20  2  0
 30 25  1  0
  1 31  1  0
  1 32  1  0
  1 33  1  0
  2 34  1  6
  5 35  1  0
  6 36  1  0
 14 37  1  0
 16 38  1  0
 19 39  1  0
 19 40  1  0
 21 41  1  0
 24 42  1  0
 25 43  1  0
 26 44  1  0
 26 45  1  0
 27 46  1  0
 27 47  1  0
 28 48  1  0
 29 49  1  0
 29 50  1  0
 30 51  1  0
 30 52  1  0
M  END
>  <energy_abs>  (83) 
42.130283902627085

>  <SMILES>  (83) 
C[C@H](c1c(ccc(c1Cl)F)Cl)Oc2cc(cnc2N)c3cnn(c3)C4CCNCC4

>  <cluster_no>  (83) 
83

>  <fda_drugs_id>  (83) 
KTEIFNKAUNYNJU-GFCCVEGCSA-N

>  <initial_conformation_id>  (83) 
224

>  <minimize_method>  (83) 
MMFF

$$$$

     RDKit          3D

 52 55  0  0  0  0  0  0  0  0999 V2000
    3.7919    1.5336    1.5463 C   0  0  0  0  0  0  0  0  0  0  0  0
    3.6752    0.1575    2.2148 C   0  0  2  0  0  0  0  0  0  0  0  0
    4.4277   -1.0313    1.6203 C   0  0  0  0  0  0  0  0  0  0  0  0
    5.0114   -1.9884    2.4929 C   0  0  0  0  0  0  0  0  0  0  0  0
    5.7119   -3.1051    2.0123 C   0  0  0  0  0  0  0  0  0  0  0  0
    5.8409   -3.3139    0.6475 C   0  0  0  0  0  0  0  0  0  0  0  0
    5.2606   -2.4079   -0.2270 C   0  0  0  0  0  0  0  0  0  0  0  0
    4.5570   -1.2834    0.2371 C   0  0  0  0  0  0  0  0  0  0  0  0
    3.8654   -0.2798   -0.9910 Cl  0  0  0  0  0  0  0  0  0  0  0  0
    5.3870   -2.6354   -1.5448 F   0  0  0  0  0  0  0  0  0  0  0  0
    4.8938   -1.8757    4.2215 Cl  0  0  0  0  0  0  0  0  0  0  0  0
    2.3281   -0.1303    2.6569 O   0  0  0  0  0  0  0  0  0  0  0  0
    1.4617   -0.5530    1.6860 C   0  0  0  0  0  0  0  0  0  0  0  0
    0.7197    0.3838    0.9692 C   0  0  0  0  0  0  0  0  0  0  0  0
   -0.2118   -0.0485    0.0245 C   0  0  0  0  0  0  0  0  0  0  0  0
   -0.3634   -1.4239   -0.1274 C   0  0  0  0  0  0  0  0  0  0  0  0
    0.3075   -2.3590    0.5907 N   0  0  0  0  0  0  0  0  0  0  0  0
    1.1914   -1.9125    1.4997 C   0  0  0  0  0  0  0  0  0  0  0  0
    1.8602   -2.8993    2.2241 N   0  0  0  0  0  0  0  0  0  0  0  0
   -0.9763    0.9009   -0.7592 C   0  0  0  0  0  0  0  0  0  0  0  0
   -0.6649    2.2149   -1.1796 C   0  0  0  0  0  0  0  0  0  0  0  0
   -1.6463    2.7776   -1.8890 N   0  0  0  0  0  0  0  0  0  0  0  0
   -2.5962    1.8254   -1.9298 N   0  0  0  0  0  0  0  0  0  0  0  0
   -2.2470    0.6895   -1.2522 C   0  0  0  0  0  0  0  0  0  0  0  0
   -3.8479    2.0616   -2.6405 C   0  0  0  0  0  0  0  0  0  0  0  0
   -4.6590    3.1894   -1.9962 C   0  0  0  0  0  0  0  0  0  0  0  0
   -5.9512    3.4321   -2.7738 C   0  0  0  0  0  0  0  0  0  0  0  0
   -5.8044    3.4365   -4.2320 N   0  0  0  0  0  0  0  0  0  0  0  0
   -4.4120    3.4884   -4.6657 C   0  0  0  0  0  0  0  0  0  0  0  0
   -3.6261    2.2889   -4.1468 C   0  0  0  0  0  0  0  0  0  0  0  0
    3.4801    2.3070    2.2568 H   0  0  0  0  0  0  0  0  0  0  0  0
    4.8231    1.7476    1.2473 H   0  0  0  0  0  0  0  0  0  0  0  0
    3.1420    1.6620    0.6814 H   0  0  0  0  0  0  0  0  0  0  0  0
    4.1931    0.3672    3.1576 H   0  0  0  0  0  0  0  0  0  0  0  0
    6.1446   -3.8201    2.7079 H   0  0  0  0  0  0  0  0  0  0  0  0
    6.3733   -4.1755    0.2591 H   0  0  0  0  0  0  0  0  0  0  0  0
    0.8596    1.4419    1.1673 H   0  0  0  0  0  0  0  0  0  0  0  0
   -1.0524   -1.8404   -0.8570 H   0  0  0  0  0  0  0  0  0  0  0  0
    1.4284   -3.7901    1.9939 H   0  0  0  0  0  0  0  0  0  0  0  0
    1.8417   -2.6914    3.2184 H   0  0  0  0  0  0  0  0  0  0  0  0
    0.2412    2.7838   -1.0081 H   0  0  0  0  0  0  0  0  0  0  0  0
   -2.9233   -0.1493   -1.1785 H   0  0  0  0  0  0  0  0  0  0  0  0
   -4.4271    1.1334   -2.5314 H   0  0  0  0  0  0  0  0  0  0  0  0
   -4.8965    2.9425   -0.9542 H   0  0  0  0  0  0  0  0  0  0  0  0
   -4.0711    4.1166   -1.9641 H   0  0  0  0  0  0  0  0  0  0  0  0
   -6.6848    2.6652   -2.5014 H   0  0  0  0  0  0  0  0  0  0  0  0
   -6.3804    4.3914   -2.4628 H   0  0  0  0  0  0  0  0  0  0  0  0
   -6.2601    2.6148   -4.6287 H   0  0  0  0  0  0  0  0  0  0  0  0
   -4.3821    3.4969   -5.7593 H   0  0  0  0  0  0  0  0  0  0  0  0
   -3.9509    4.4282   -4.3393 H   0  0  0  0  0  0  0  0  0  0  0  0
   -3.9449    1.3861   -4.6847 H   0  0  0  0  0  0  0  0  0  0  0  0
   -2.5662    2.4241   -4.3961 H   0  0  0  0  0  0  0  0  0  0  0  0
  1  2  1  0
  2  3  1  0
  3  4  2  0
  4  5  1  0
  5  6  2  0
  6  7  1  0
  7  8  2  0
  8  9  1  0
  7 10  1  0
  4 11  1  0
  2 12  1  0
 12 13  1  0
 13 14  2  0
 14 15  1  0
 15 16  2  0
 16 17  1  0
 17 18  2  0
 18 19  1  0
 15 20  1  0
 20 21  1  0
 21 22  2  0
 22 23  1  0
 23 24  1  0
 23 25  1  0
 25 26  1  0
 26 27  1  0
 27 28  1  0
 28 29  1  0
 29 30  1  0
  8  3  1  0
 18 13  1  0
 24 20  2  0
 30 25  1  0
  1 31  1  0
  1 32  1  0
  1 33  1  0
  2 34  1  1
  5 35  1  0
  6 36  1  0
 14 37  1  0
 16 38  1  0
 19 39  1  0
 19 40  1  0
 21 41  1  0
 24 42  1  0
 25 43  1  0
 26 44  1  0
 26 45  1  0
 27 46  1  0
 27 47  1  0
 28 48  1  0
 29 49  1  0
 29 50  1  0
 30 51  1  0
 30 52  1  0
M  END
>  <energy_abs>  (84) 
37.93313330444041

>  <SMILES>  (84) 
C[C@H](c1c(ccc(c1Cl)F)Cl)Oc2cc(cnc2N)c3cnn(c3)C4CCNCC4

>  <cluster_no>  (84) 
84

>  <fda_drugs_id>  (84) 
KTEIFNKAUNYNJU-GFCCVEGCSA-N

>  <initial_conformation_id>  (84) 
223

>  <minimize_method>  (84) 
MMFF

$$$$

     RDKit          3D

 52 55  0  0  0  0  0  0  0  0999 V2000
    5.5429   -2.1480   -0.1372 C   0  0  0  0  0  0  0  0  0  0  0  0
    4.1270   -1.5916    0.0406 C   0  0  2  0  0  0  0  0  0  0  0  0
    3.9042   -1.1373    1.4799 C   0  0  0  0  0  0  0  0  0  0  0  0
    3.6125   -2.0355    2.5322 C   0  0  0  0  0  0  0  0  0  0  0  0
    3.4139   -1.5809    3.8453 C   0  0  0  0  0  0  0  0  0  0  0  0
    3.5283   -0.2296    4.1500 C   0  0  0  0  0  0  0  0  0  0  0  0
    3.8408    0.6670    3.1391 C   0  0  0  0  0  0  0  0  0  0  0  0
    4.0273    0.2307    1.8203 C   0  0  0  0  0  0  0  0  0  0  0  0
    4.4380    1.4406    0.6472 Cl  0  0  0  0  0  0  0  0  0  0  0  0
    3.9812    1.9637    3.4562 F   0  0  0  0  0  0  0  0  0  0  0  0
    3.5155   -3.7503    2.3161 Cl  0  0  0  0  0  0  0  0  0  0  0  0
    3.2091   -2.6200   -0.3684 O   0  0  0  0  0  0  0  0  0  0  0  0
    2.1616   -2.2137   -1.1564 C   0  0  0  0  0  0  0  0  0  0  0  0
    1.4100   -1.0637   -0.9123 C   0  0  0  0  0  0  0  0  0  0  0  0
    0.3406   -0.7482   -1.7533 C   0  0  0  0  0  0  0  0  0  0  0  0
    0.0848   -1.6175   -2.8105 C   0  0  0  0  0  0  0  0  0  0  0  0
    0.7824   -2.7525   -3.0571 N   0  0  0  0  0  0  0  0  0  0  0  0
    1.8021   -3.0427   -2.2314 C   0  0  0  0  0  0  0  0  0  0  0  0
    2.5014   -4.2429   -2.4633 N   0  0  0  0  0  0  0  0  0  0  0  0
   -0.4675    0.4297   -1.5172 C   0  0  0  0  0  0  0  0  0  0  0  0
   -0.1366    1.6817   -0.9467 C   0  0  0  0  0  0  0  0  0  0  0  0
   -1.1834    2.5073   -0.8677 N   0  0  0  0  0  0  0  0  0  0  0  0
   -2.1975    1.7869   -1.3849 N   0  0  0  0  0  0  0  0  0  0  0  0
   -1.8172    0.5350   -1.7848 C   0  0  0  0  0  0  0  0  0  0  0  0
   -3.5372    2.3562   -1.4718 C   0  0  0  0  0  0  0  0  0  0  0  0
   -4.0970    2.7130   -0.0905 C   0  0  0  0  0  0  0  0  0  0  0  0
   -5.4779    3.3481   -0.2231 C   0  0  0  0  0  0  0  0  0  0  0  0
   -5.4568    4.5152   -1.1033 N   0  0  0  0  0  0  0  0  0  0  0  0
   -4.9846    4.1663   -2.4443 C   0  0  0  0  0  0  0  0  0  0  0  0
   -3.5832    3.5656   -2.4137 C   0  0  0  0  0  0  0  0  0  0  0  0
    5.6992   -2.4492   -1.1796 H   0  0  0  0  0  0  0  0  0  0  0  0
    6.3040   -1.4066    0.1294 H   0  0  0  0  0  0  0  0  0  0  0  0
    5.7128   -3.0439    0.4700 H   0  0  0  0  0  0  0  0  0  0  0  0
    4.0433   -0.7556   -0.6628 H   0  0  0  0  0  0  0  0  0  0  0  0
    3.1849   -2.2866    4.6421 H   0  0  0  0  0  0  0  0  0  0  0  0
    3.3884    0.1289    5.1653 H   0  0  0  0  0  0  0  0  0  0  0  0
    1.6235   -0.4362   -0.0554 H   0  0  0  0  0  0  0  0  0  0  0  0
   -0.7178   -1.4336   -3.5216 H   0  0  0  0  0  0  0  0  0  0  0  0
    2.3731   -4.8358   -1.6422 H   0  0  0  0  0  0  0  0  0  0  0  0
    3.4948   -4.0230   -2.4965 H   0  0  0  0  0  0  0  0  0  0  0  0
    0.8227    2.0287   -0.5869 H   0  0  0  0  0  0  0  0  0  0  0  0
   -2.5309   -0.1616   -2.2024 H   0  0  0  0  0  0  0  0  0  0  0  0
   -4.1719    1.5680   -1.9019 H   0  0  0  0  0  0  0  0  0  0  0  0
   -3.4257    3.4084    0.4329 H   0  0  0  0  0  0  0  0  0  0  0  0
   -4.1617    1.8135    0.5345 H   0  0  0  0  0  0  0  0  0  0  0  0
   -6.1987    2.6165   -0.6008 H   0  0  0  0  0  0  0  0  0  0  0  0
   -5.8338    3.6564    0.7638 H   0  0  0  0  0  0  0  0  0  0  0  0
   -4.8330    5.2224   -0.7047 H   0  0  0  0  0  0  0  0  0  0  0  0
   -4.9819    5.0688   -3.0665 H   0  0  0  0  0  0  0  0  0  0  0  0
   -5.6887    3.4678   -2.9142 H   0  0  0  0  0  0  0  0  0  0  0  0
   -3.2900    3.2640   -3.4277 H   0  0  0  0  0  0  0  0  0  0  0  0
   -2.8631    4.3319   -2.0959 H   0  0  0  0  0  0  0  0  0  0  0  0
  1  2  1  0
  2  3  1  0
  3  4  2  0
  4  5  1  0
  5  6  2  0
  6  7  1  0
  7  8  2  0
  8  9  1  0
  7 10  1  0
  4 11  1  0
  2 12  1  0
 12 13  1  0
 13 14  2  0
 14 15  1  0
 15 16  2  0
 16 17  1  0
 17 18  2  0
 18 19  1  0
 15 20  1  0
 20 21  1  0
 21 22  2  0
 22 23  1  0
 23 24  1  0
 23 25  1  0
 25 26  1  0
 26 27  1  0
 27 28  1  0
 28 29  1  0
 29 30  1  0
  8  3  1  0
 18 13  1  0
 24 20  2  0
 30 25  1  0
  1 31  1  0
  1 32  1  0
  1 33  1  0
  2 34  1  6
  5 35  1  0
  6 36  1  0
 14 37  1  0
 16 38  1  0
 19 39  1  0
 19 40  1  0
 21 41  1  0
 24 42  1  0
 25 43  1  0
 26 44  1  0
 26 45  1  0
 27 46  1  0
 27 47  1  0
 28 48  1  0
 29 49  1  0
 29 50  1  0
 30 51  1  0
 30 52  1  0
M  END
>  <energy_abs>  (85) 
33.773755233235256

>  <SMILES>  (85) 
C[C@H](c1c(ccc(c1Cl)F)Cl)Oc2cc(cnc2N)c3cnn(c3)C4CCNCC4

>  <cluster_no>  (85) 
85

>  <fda_drugs_id>  (85) 
KTEIFNKAUNYNJU-GFCCVEGCSA-N

>  <initial_conformation_id>  (85) 
221

>  <minimize_method>  (85) 
MMFF

$$$$

     RDKit          3D

 52 55  0  0  0  0  0  0  0  0999 V2000
    4.4975   -3.6758    0.7758 C   0  0  0  0  0  0  0  0  0  0  0  0
    3.5515   -2.5069    0.4835 C   0  0  2  0  0  0  0  0  0  0  0  0
    4.0401   -1.2190    1.1394 C   0  0  0  0  0  0  0  0  0  0  0  0
    4.6362   -0.2010    0.3574 C   0  0  0  0  0  0  0  0  0  0  0  0
    5.0831    0.9980    0.9309 C   0  0  0  0  0  0  0  0  0  0  0  0
    4.9580    1.2104    2.2983 C   0  0  0  0  0  0  0  0  0  0  0  0
    4.3857    0.2229    3.0878 C   0  0  0  0  0  0  0  0  0  0  0  0
    3.9311   -0.9814    2.5306 C   0  0  0  0  0  0  0  0  0  0  0  0
    3.2407   -2.1301    3.6309 Cl  0  0  0  0  0  0  0  0  0  0  0  0
    4.2731    0.4528    4.4052 F   0  0  0  0  0  0  0  0  0  0  0  0
    4.8671   -0.3490   -1.3526 Cl  0  0  0  0  0  0  0  0  0  0  0  0
    2.2259   -2.8738    0.9217 O   0  0  0  0  0  0  0  0  0  0  0  0
    1.2620   -2.4370    0.0466 C   0  0  0  0  0  0  0  0  0  0  0  0
    0.8478   -1.1052    0.0626 C   0  0  0  0  0  0  0  0  0  0  0  0
   -0.1337   -0.6779   -0.8340 C   0  0  0  0  0  0  0  0  0  0  0  0
   -0.6548   -1.6448   -1.6926 C   0  0  0  0  0  0  0  0  0  0  0  0
   -0.2923   -2.9541   -1.7024 N   0  0  0  0  0  0  0  0  0  0  0  0
    0.6463   -3.3428   -0.8256 C   0  0  0  0  0  0  0  0  0  0  0  0
    1.0072   -4.7006   -0.8188 N   0  0  0  0  0  0  0  0  0  0  0  0
   -0.5720    0.7080   -0.8574 C   0  0  0  0  0  0  0  0  0  0  0  0
   -0.0097    1.8659   -0.2683 C   0  0  0  0  0  0  0  0  0  0  0  0
   -0.7145    2.9721   -0.5140 N   0  0  0  0  0  0  0  0  0  0  0  0
   -1.7471    2.5343   -1.2580 N   0  0  0  0  0  0  0  0  0  0  0  0
   -1.7021    1.1850   -1.4900 C   0  0  0  0  0  0  0  0  0  0  0  0
   -2.7632    3.4854   -1.7007 C   0  0  0  0  0  0  0  0  0  0  0  0
   -4.1220    3.2457   -1.0230 C   0  0  0  0  0  0  0  0  0  0  0  0
   -5.0755    2.4595   -1.9147 C   0  0  0  0  0  0  0  0  0  0  0  0
   -5.2716    3.0408   -3.2404 N   0  0  0  0  0  0  0  0  0  0  0  0
   -4.2510    3.9974   -3.6583 C   0  0  0  0  0  0  0  0  0  0  0  0
   -2.8590    3.5539   -3.2314 C   0  0  0  0  0  0  0  0  0  0  0  0
    5.5132   -3.4582    0.4276 H   0  0  0  0  0  0  0  0  0  0  0  0
    4.1454   -4.5822    0.2702 H   0  0  0  0  0  0  0  0  0  0  0  0
    4.5455   -3.9210    1.8412 H   0  0  0  0  0  0  0  0  0  0  0  0
    3.5352   -2.4140   -0.6085 H   0  0  0  0  0  0  0  0  0  0  0  0
    5.5311    1.7735    0.3115 H   0  0  0  0  0  0  0  0  0  0  0  0
    5.3042    2.1352    2.7529 H   0  0  0  0  0  0  0  0  0  0  0  0
    1.2820   -0.4210    0.7835 H   0  0  0  0  0  0  0  0  0  0  0  0
   -1.4105   -1.4026   -2.4346 H   0  0  0  0  0  0  0  0  0  0  0  0
    0.8805   -5.0470    0.1297 H   0  0  0  0  0  0  0  0  0  0  0  0
    1.9962   -4.7790   -1.0274 H   0  0  0  0  0  0  0  0  0  0  0  0
    0.8894    1.9531    0.3286 H   0  0  0  0  0  0  0  0  0  0  0  0
   -2.4694    0.6957   -2.0725 H   0  0  0  0  0  0  0  0  0  0  0  0
   -2.4100    4.4664   -1.3484 H   0  0  0  0  0  0  0  0  0  0  0  0
   -4.5819    4.2185   -0.8003 H   0  0  0  0  0  0  0  0  0  0  0  0
   -4.0042    2.7363   -0.0590 H   0  0  0  0  0  0  0  0  0  0  0  0
   -4.7080    1.4353   -2.0405 H   0  0  0  0  0  0  0  0  0  0  0  0
   -6.0487    2.3706   -1.4161 H   0  0  0  0  0  0  0  0  0  0  0  0
   -6.1969    3.4646   -3.3151 H   0  0  0  0  0  0  0  0  0  0  0  0
   -4.2869    4.0958   -4.7487 H   0  0  0  0  0  0  0  0  0  0  0  0
   -4.4730    4.9882   -3.2418 H   0  0  0  0  0  0  0  0  0  0  0  0
   -2.1077    4.2559   -3.6143 H   0  0  0  0  0  0  0  0  0  0  0  0
   -2.6335    2.5850   -3.6975 H   0  0  0  0  0  0  0  0  0  0  0  0
  1  2  1  0
  2  3  1  0
  3  4  2  0
  4  5  1  0
  5  6  2  0
  6  7  1  0
  7  8  2  0
  8  9  1  0
  7 10  1  0
  4 11  1  0
  2 12  1  0
 12 13  1  0
 13 14  2  0
 14 15  1  0
 15 16  2  0
 16 17  1  0
 17 18  2  0
 18 19  1  0
 15 20  1  0
 20 21  1  0
 21 22  2  0
 22 23  1  0
 23 24  1  0
 23 25  1  0
 25 26  1  0
 26 27  1  0
 27 28  1  0
 28 29  1  0
 29 30  1  0
  8  3  1  0
 18 13  1  0
 24 20  2  0
 30 25  1  0
  1 31  1  0
  1 32  1  0
  1 33  1  0
  2 34  1  6
  5 35  1  0
  6 36  1  0
 14 37  1  0
 16 38  1  0
 19 39  1  0
 19 40  1  0
 21 41  1  0
 24 42  1  0
 25 43  1  0
 26 44  1  0
 26 45  1  0
 27 46  1  0
 27 47  1  0
 28 48  1  0
 29 49  1  0
 29 50  1  0
 30 51  1  0
 30 52  1  0
M  END
>  <energy_abs>  (86) 
39.86710743291689

>  <SMILES>  (86) 
C[C@H](c1c(ccc(c1Cl)F)Cl)Oc2cc(cnc2N)c3cnn(c3)C4CCNCC4

>  <cluster_no>  (86) 
86

>  <fda_drugs_id>  (86) 
KTEIFNKAUNYNJU-GFCCVEGCSA-N

>  <initial_conformation_id>  (86) 
219

>  <minimize_method>  (86) 
MMFF

$$$$

     RDKit          3D

 52 55  0  0  0  0  0  0  0  0999 V2000
    4.0270   -3.9648    1.7352 C   0  0  0  0  0  0  0  0  0  0  0  0
    3.3636   -2.7609    1.0605 C   0  0  2  0  0  0  0  0  0  0  0  0
    3.8699   -1.4448    1.6466 C   0  0  0  0  0  0  0  0  0  0  0  0
    3.4580   -0.9647    2.9117 C   0  0  0  0  0  0  0  0  0  0  0  0
    3.9305    0.2562    3.4175 C   0  0  0  0  0  0  0  0  0  0  0  0
    4.8309    1.0212    2.6864 C   0  0  0  0  0  0  0  0  0  0  0  0
    5.2629    0.5599    1.4530 C   0  0  0  0  0  0  0  0  0  0  0  0
    4.7998   -0.6548    0.9304 C   0  0  0  0  0  0  0  0  0  0  0  0
    5.4359   -1.1341   -0.6085 Cl  0  0  0  0  0  0  0  0  0  0  0  0
    6.1456    1.3063    0.7717 F   0  0  0  0  0  0  0  0  0  0  0  0
    2.3604   -1.8196    3.9429 Cl  0  0  0  0  0  0  0  0  0  0  0  0
    1.9334   -2.8915    1.2031 O   0  0  0  0  0  0  0  0  0  0  0  0
    1.2707   -2.4127    0.1021 C   0  0  0  0  0  0  0  0  0  0  0  0
    0.6652   -1.1611    0.1829 C   0  0  0  0  0  0  0  0  0  0  0  0
   -0.0187   -0.6592   -0.9245 C   0  0  0  0  0  0  0  0  0  0  0  0
   -0.0651   -1.4697   -2.0572 C   0  0  0  0  0  0  0  0  0  0  0  0
    0.4873   -2.7074   -2.1489 N   0  0  0  0  0  0  0  0  0  0  0  0
    1.1331   -3.1687   -1.0654 C   0  0  0  0  0  0  0  0  0  0  0  0
    1.6997   -4.4397   -1.1793 N   0  0  0  0  0  0  0  0  0  0  0  0
   -0.6281    0.6563   -0.8900 C   0  0  0  0  0  0  0  0  0  0  0  0
   -0.3036    1.8029   -0.1307 C   0  0  0  0  0  0  0  0  0  0  0  0
   -1.1150    2.8341   -0.3760 N   0  0  0  0  0  0  0  0  0  0  0  0
   -1.9708    2.3556   -1.2969 N   0  0  0  0  0  0  0  0  0  0  0  0
   -1.7236    1.0512   -1.6295 C   0  0  0  0  0  0  0  0  0  0  0  0
   -3.0308    3.2188   -1.8025 C   0  0  0  0  0  0  0  0  0  0  0  0
   -4.4084    2.7700   -1.3053 C   0  0  0  0  0  0  0  0  0  0  0  0
   -5.4977    3.6759   -1.8686 C   0  0  0  0  0  0  0  0  0  0  0  0
   -5.4541    3.7322   -3.3293 N   0  0  0  0  0  0  0  0  0  0  0  0
   -4.1599    4.2147   -3.8114 C   0  0  0  0  0  0  0  0  0  0  0  0
   -3.0134    3.3313   -3.3313 C   0  0  0  0  0  0  0  0  0  0  0  0
    5.1181   -3.9170    1.6550 H   0  0  0  0  0  0  0  0  0  0  0  0
    3.7650   -4.0464    2.7944 H   0  0  0  0  0  0  0  0  0  0  0  0
    3.6872   -4.8928    1.2634 H   0  0  0  0  0  0  0  0  0  0  0  0
    3.6205   -2.8344   -0.0009 H   0  0  0  0  0  0  0  0  0  0  0  0
    3.5992    0.6132    4.3910 H   0  0  0  0  0  0  0  0  0  0  0  0
    5.2042    1.9650    3.0713 H   0  0  0  0  0  0  0  0  0  0  0  0
    0.7330   -0.5970    1.1076 H   0  0  0  0  0  0  0  0  0  0  0  0
   -0.5537   -1.1396   -2.9699 H   0  0  0  0  0  0  0  0  0  0  0  0
    1.4157   -5.0226   -0.3989 H   0  0  0  0  0  0  0  0  0  0  0  0
    1.4037   -4.8179   -2.0756 H   0  0  0  0  0  0  0  0  0  0  0  0
    0.4946    1.9325    0.5877 H   0  0  0  0  0  0  0  0  0  0  0  0
   -2.3451    0.5271   -2.3407 H   0  0  0  0  0  0  0  0  0  0  0  0
   -2.8288    4.2184   -1.3916 H   0  0  0  0  0  0  0  0  0  0  0  0
   -4.4411    2.7918   -0.2095 H   0  0  0  0  0  0  0  0  0  0  0  0
   -4.6049    1.7321   -1.6038 H   0  0  0  0  0  0  0  0  0  0  0  0
   -5.4036    4.6875   -1.4559 H   0  0  0  0  0  0  0  0  0  0  0  0
   -6.4798    3.3029   -1.5579 H   0  0  0  0  0  0  0  0  0  0  0  0
   -5.6417    2.8057   -3.7140 H   0  0  0  0  0  0  0  0  0  0  0  0
   -4.0051    5.2508   -3.4870 H   0  0  0  0  0  0  0  0  0  0  0  0
   -4.1741    4.2302   -4.9064 H   0  0  0  0  0  0  0  0  0  0  0  0
   -2.0569    3.7486   -3.6692 H   0  0  0  0  0  0  0  0  0  0  0  0
   -3.1036    2.3401   -3.7940 H   0  0  0  0  0  0  0  0  0  0  0  0
  1  2  1  0
  2  3  1  0
  3  4  2  0
  4  5  1  0
  5  6  2  0
  6  7  1  0
  7  8  2  0
  8  9  1  0
  7 10  1  0
  4 11  1  0
  2 12  1  0
 12 13  1  0
 13 14  2  0
 14 15  1  0
 15 16  2  0
 16 17  1  0
 17 18  2  0
 18 19  1  0
 15 20  1  0
 20 21  1  0
 21 22  2  0
 22 23  1  0
 23 24  1  0
 23 25  1  0
 25 26  1  0
 26 27  1  0
 27 28  1  0
 28 29  1  0
 29 30  1  0
  8  3  1  0
 18 13  1  0
 24 20  2  0
 30 25  1  0
  1 31  1  0
  1 32  1  0
  1 33  1  0
  2 34  1  6
  5 35  1  0
  6 36  1  0
 14 37  1  0
 16 38  1  0
 19 39  1  0
 19 40  1  0
 21 41  1  0
 24 42  1  0
 25 43  1  0
 26 44  1  0
 26 45  1  0
 27 46  1  0
 27 47  1  0
 28 48  1  0
 29 49  1  0
 29 50  1  0
 30 51  1  0
 30 52  1  0
M  END
>  <energy_abs>  (87) 
23.639387290151127

>  <SMILES>  (87) 
C[C@H](c1c(ccc(c1Cl)F)Cl)Oc2cc(cnc2N)c3cnn(c3)C4CCNCC4

>  <cluster_no>  (87) 
87

>  <fda_drugs_id>  (87) 
KTEIFNKAUNYNJU-GFCCVEGCSA-N

>  <initial_conformation_id>  (87) 
218

>  <minimize_method>  (87) 
MMFF

$$$$

     RDKit          3D

 52 55  0  0  0  0  0  0  0  0999 V2000
    5.1854    0.5077    0.0194 C   0  0  0  0  0  0  0  0  0  0  0  0
    3.9406   -0.2416    0.4995 C   0  0  2  0  0  0  0  0  0  0  0  0
    4.2070   -1.0112    1.7898 C   0  0  0  0  0  0  0  0  0  0  0  0
    3.7123   -0.5298    3.0258 C   0  0  0  0  0  0  0  0  0  0  0  0
    3.9426   -1.2158    4.2276 C   0  0  0  0  0  0  0  0  0  0  0  0
    4.6764   -2.3944    4.2321 C   0  0  0  0  0  0  0  0  0  0  0  0
    5.1846   -2.8781    3.0356 C   0  0  0  0  0  0  0  0  0  0  0  0
    4.9647   -2.2049    1.8249 C   0  0  0  0  0  0  0  0  0  0  0  0
    5.6632   -2.9186    0.4082 Cl  0  0  0  0  0  0  0  0  0  0  0  0
    5.8936   -4.0161    3.0649 F   0  0  0  0  0  0  0  0  0  0  0  0
    2.8022    0.9380    3.1616 Cl  0  0  0  0  0  0  0  0  0  0  0  0
    3.5046   -1.1252   -0.5521 O   0  0  0  0  0  0  0  0  0  0  0  0
    2.1471   -1.1359   -0.7536 C   0  0  0  0  0  0  0  0  0  0  0  0
    1.4523    0.0141   -1.1354 C   0  0  0  0  0  0  0  0  0  0  0  0
    0.0770   -0.0510   -1.3695 C   0  0  0  0  0  0  0  0  0  0  0  0
   -0.5193   -1.3009   -1.2234 C   0  0  0  0  0  0  0  0  0  0  0  0
    0.1366   -2.4391   -0.8833 N   0  0  0  0  0  0  0  0  0  0  0  0
    1.4593   -2.3527   -0.6697 C   0  0  0  0  0  0  0  0  0  0  0  0
    2.1425   -3.5414   -0.3641 N   0  0  0  0  0  0  0  0  0  0  0  0
   -0.6748    1.1306   -1.7588 C   0  0  0  0  0  0  0  0  0  0  0  0
   -0.2383    2.3912   -2.2321 C   0  0  0  0  0  0  0  0  0  0  0  0
   -1.2441    3.2330   -2.4781 N   0  0  0  0  0  0  0  0  0  0  0  0
   -2.3424    2.5181   -2.1713 N   0  0  0  0  0  0  0  0  0  0  0  0
   -2.0499    1.2543   -1.7304 C   0  0  0  0  0  0  0  0  0  0  0  0
   -3.6632    3.1182   -2.3276 C   0  0  0  0  0  0  0  0  0  0  0  0
   -4.4500    3.1249   -1.0140 C   0  0  0  0  0  0  0  0  0  0  0  0
   -5.8010    3.8166   -1.1989 C   0  0  0  0  0  0  0  0  0  0  0  0
   -6.4055    3.6057   -2.5150 N   0  0  0  0  0  0  0  0  0  0  0  0
   -5.9564    2.3805   -3.1583 C   0  0  0  0  0  0  0  0  0  0  0  0
   -4.4619    2.4564   -3.4651 C   0  0  0  0  0  0  0  0  0  0  0  0
    4.9568    1.0681   -0.8934 H   0  0  0  0  0  0  0  0  0  0  0  0
    6.0083   -0.1661   -0.2323 H   0  0  0  0  0  0  0  0  0  0  0  0
    5.5415    1.2116    0.7783 H   0  0  0  0  0  0  0  0  0  0  0  0
    3.1807    0.5255    0.6674 H   0  0  0  0  0  0  0  0  0  0  0  0
    3.5487   -0.8309    5.1673 H   0  0  0  0  0  0  0  0  0  0  0  0
    4.8599   -2.9354    5.1557 H   0  0  0  0  0  0  0  0  0  0  0  0
    1.9910    0.9476   -1.2579 H   0  0  0  0  0  0  0  0  0  0  0  0
   -1.5811   -1.4514   -1.3959 H   0  0  0  0  0  0  0  0  0  0  0  0
    2.8776   -3.6605   -1.0582 H   0  0  0  0  0  0  0  0  0  0  0  0
    2.6173   -3.4244    0.5246 H   0  0  0  0  0  0  0  0  0  0  0  0
    0.7723    2.7346   -2.4131 H   0  0  0  0  0  0  0  0  0  0  0  0
   -2.8381    0.5728   -1.4417 H   0  0  0  0  0  0  0  0  0  0  0  0
   -3.4838    4.1665   -2.6088 H   0  0  0  0  0  0  0  0  0  0  0  0
   -3.8813    3.6290   -0.2229 H   0  0  0  0  0  0  0  0  0  0  0  0
   -4.6159    2.0963   -0.6676 H   0  0  0  0  0  0  0  0  0  0  0  0
   -5.6839    4.8961   -1.0529 H   0  0  0  0  0  0  0  0  0  0  0  0
   -6.4852    3.4660   -0.4172 H   0  0  0  0  0  0  0  0  0  0  0  0
   -7.4220    3.6172   -2.4342 H   0  0  0  0  0  0  0  0  0  0  0  0
   -6.1807    1.5114   -2.5276 H   0  0  0  0  0  0  0  0  0  0  0  0
   -6.5055    2.2367   -4.0957 H   0  0  0  0  0  0  0  0  0  0  0  0
   -4.1010    1.4441   -3.6846 H   0  0  0  0  0  0  0  0  0  0  0  0
   -4.3024    3.0372   -4.3835 H   0  0  0  0  0  0  0  0  0  0  0  0
  1  2  1  0
  2  3  1  0
  3  4  2  0
  4  5  1  0
  5  6  2  0
  6  7  1  0
  7  8  2  0
  8  9  1  0
  7 10  1  0
  4 11  1  0
  2 12  1  0
 12 13  1  0
 13 14  2  0
 14 15  1  0
 15 16  2  0
 16 17  1  0
 17 18  2  0
 18 19  1  0
 15 20  1  0
 20 21  1  0
 21 22  2  0
 22 23  1  0
 23 24  1  0
 23 25  1  0
 25 26  1  0
 26 27  1  0
 27 28  1  0
 28 29  1  0
 29 30  1  0
  8  3  1  0
 18 13  1  0
 24 20  2  0
 30 25  1  0
  1 31  1  0
  1 32  1  0
  1 33  1  0
  2 34  1  1
  5 35  1  0
  6 36  1  0
 14 37  1  0
 16 38  1  0
 19 39  1  0
 19 40  1  0
 21 41  1  0
 24 42  1  0
 25 43  1  0
 26 44  1  0
 26 45  1  0
 27 46  1  0
 27 47  1  0
 28 48  1  0
 29 49  1  0
 29 50  1  0
 30 51  1  0
 30 52  1  0
M  END
>  <energy_abs>  (88) 
39.751540054757236

>  <SMILES>  (88) 
C[C@H](c1c(ccc(c1Cl)F)Cl)Oc2cc(cnc2N)c3cnn(c3)C4CCNCC4

>  <cluster_no>  (88) 
88

>  <fda_drugs_id>  (88) 
KTEIFNKAUNYNJU-GFCCVEGCSA-N

>  <initial_conformation_id>  (88) 
217

>  <minimize_method>  (88) 
MMFF

$$$$

     RDKit          3D

 52 55  0  0  0  0  0  0  0  0999 V2000
    5.7759   -1.7080    0.2428 C   0  0  0  0  0  0  0  0  0  0  0  0
    4.3336   -1.2042    0.1422 C   0  0  2  0  0  0  0  0  0  0  0  0
    3.7853   -0.8614    1.5238 C   0  0  0  0  0  0  0  0  0  0  0  0
    3.7166    0.4875    1.9465 C   0  0  0  0  0  0  0  0  0  0  0  0
    3.2232    0.8385    3.2108 C   0  0  0  0  0  0  0  0  0  0  0  0
    2.7931   -0.1455    4.0898 C   0  0  0  0  0  0  0  0  0  0  0  0
    2.8659   -1.4769    3.7030 C   0  0  0  0  0  0  0  0  0  0  0  0
    3.3569   -1.8459    2.4433 C   0  0  0  0  0  0  0  0  0  0  0  0
    3.4168   -3.5445    2.1014 Cl  0  0  0  0  0  0  0  0  0  0  0  0
    2.4621   -2.4094    4.5789 F   0  0  0  0  0  0  0  0  0  0  0  0
    4.2460    1.8024    0.9542 Cl  0  0  0  0  0  0  0  0  0  0  0  0
    3.5562   -2.2116   -0.5339 O   0  0  0  0  0  0  0  0  0  0  0  0
    2.6705   -1.6680   -1.4303 C   0  0  0  0  0  0  0  0  0  0  0  0
    1.5200   -1.0139   -0.9904 C   0  0  0  0  0  0  0  0  0  0  0  0
    0.6385   -0.4697   -1.9247 C   0  0  0  0  0  0  0  0  0  0  0  0
    0.9660   -0.6395   -3.2679 C   0  0  0  0  0  0  0  0  0  0  0  0
    2.0625   -1.3000   -3.7203 N   0  0  0  0  0  0  0  0  0  0  0  0
    2.8944   -1.8207   -2.8032 C   0  0  0  0  0  0  0  0  0  0  0  0
    4.0047   -2.5433   -3.2672 N   0  0  0  0  0  0  0  0  0  0  0  0
   -0.5583    0.2298   -1.4976 C   0  0  0  0  0  0  0  0  0  0  0  0
   -1.2999    0.1400   -0.2960 C   0  0  0  0  0  0  0  0  0  0  0  0
   -2.3413    0.9737   -0.2645 N   0  0  0  0  0  0  0  0  0  0  0  0
   -2.2851    1.5987   -1.4554 N   0  0  0  0  0  0  0  0  0  0  0  0
   -1.2325    1.1877   -2.2273 C   0  0  0  0  0  0  0  0  0  0  0  0
   -3.2798    2.6106   -1.8067 C   0  0  0  0  0  0  0  0  0  0  0  0
   -4.6617    1.9723   -2.0120 C   0  0  0  0  0  0  0  0  0  0  0  0
   -5.7609    3.0186   -1.8881 C   0  0  0  0  0  0  0  0  0  0  0  0
   -5.7715    3.7148   -0.6018 N   0  0  0  0  0  0  0  0  0  0  0  0
   -4.5070    3.6533    0.1341 C   0  0  0  0  0  0  0  0  0  0  0  0
   -3.3054    3.7672   -0.7947 C   0  0  0  0  0  0  0  0  0  0  0  0
    5.8475   -2.6511    0.7929 H   0  0  0  0  0  0  0  0  0  0  0  0
    6.1788   -1.9034   -0.7569 H   0  0  0  0  0  0  0  0  0  0  0  0
    6.4188   -0.9720    0.7365 H   0  0  0  0  0  0  0  0  0  0  0  0
    4.3726   -0.3172   -0.4999 H   0  0  0  0  0  0  0  0  0  0  0  0
    3.1795    1.8832    3.5155 H   0  0  0  0  0  0  0  0  0  0  0  0
    2.4081    0.1111    5.0706 H   0  0  0  0  0  0  0  0  0  0  0  0
    1.3192   -0.9360    0.0716 H   0  0  0  0  0  0  0  0  0  0  0  0
    0.3309   -0.2560   -4.0619 H   0  0  0  0  0  0  0  0  0  0  0  0
    3.9464   -3.4796   -2.8751 H   0  0  0  0  0  0  0  0  0  0  0  0
    4.8475   -2.1269   -2.8877 H   0  0  0  0  0  0  0  0  0  0  0  0
   -1.1257   -0.5008    0.5583 H   0  0  0  0  0  0  0  0  0  0  0  0
   -1.0572    1.6160   -3.2038 H   0  0  0  0  0  0  0  0  0  0  0  0
   -2.9459    3.0276   -2.7671 H   0  0  0  0  0  0  0  0  0  0  0  0
   -4.7048    1.4960   -3.0000 H   0  0  0  0  0  0  0  0  0  0  0  0
   -4.8458    1.1719   -1.2825 H   0  0  0  0  0  0  0  0  0  0  0  0
   -5.6433    3.7646   -2.6831 H   0  0  0  0  0  0  0  0  0  0  0  0
   -6.7372    2.5483   -2.0511 H   0  0  0  0  0  0  0  0  0  0  0  0
   -6.5136    3.3416   -0.0053 H   0  0  0  0  0  0  0  0  0  0  0  0
   -4.4560    2.7221    0.7106 H   0  0  0  0  0  0  0  0  0  0  0  0
   -4.4908    4.4746    0.8600 H   0  0  0  0  0  0  0  0  0  0  0  0
   -3.3722    4.7178   -1.3414 H   0  0  0  0  0  0  0  0  0  0  0  0
   -2.3785    3.8163   -0.2103 H   0  0  0  0  0  0  0  0  0  0  0  0
  1  2  1  0
  2  3  1  0
  3  4  2  0
  4  5  1  0
  5  6  2  0
  6  7  1  0
  7  8  2  0
  8  9  1  0
  7 10  1  0
  4 11  1  0
  2 12  1  0
 12 13  1  0
 13 14  2  0
 14 15  1  0
 15 16  2  0
 16 17  1  0
 17 18  2  0
 18 19  1  0
 15 20  1  0
 20 21  1  0
 21 22  2  0
 22 23  1  0
 23 24  1  0
 23 25  1  0
 25 26  1  0
 26 27  1  0
 27 28  1  0
 28 29  1  0
 29 30  1  0
  8  3  1  0
 18 13  1  0
 24 20  2  0
 30 25  1  0
  1 31  1  0
  1 32  1  0
  1 33  1  0
  2 34  1  6
  5 35  1  0
  6 36  1  0
 14 37  1  0
 16 38  1  0
 19 39  1  0
 19 40  1  0
 21 41  1  0
 24 42  1  0
 25 43  1  0
 26 44  1  0
 26 45  1  0
 27 46  1  0
 27 47  1  0
 28 48  1  0
 29 49  1  0
 29 50  1  0
 30 51  1  0
 30 52  1  0
M  END
>  <energy_abs>  (89) 
38.39050236295212

>  <SMILES>  (89) 
C[C@H](c1c(ccc(c1Cl)F)Cl)Oc2cc(cnc2N)c3cnn(c3)C4CCNCC4

>  <cluster_no>  (89) 
89

>  <fda_drugs_id>  (89) 
KTEIFNKAUNYNJU-GFCCVEGCSA-N

>  <initial_conformation_id>  (89) 
216

>  <minimize_method>  (89) 
MMFF

$$$$

     RDKit          3D

 52 55  0  0  0  0  0  0  0  0999 V2000
    1.9479   -2.5741    1.2012 C   0  0  0  0  0  0  0  0  0  0  0  0
    3.2263   -1.8702    0.7223 C   0  0  2  0  0  0  0  0  0  0  0  0
    4.3861   -2.0851    1.6935 C   0  0  0  0  0  0  0  0  0  0  0  0
    5.4945   -2.8891    1.3358 C   0  0  0  0  0  0  0  0  0  0  0  0
    6.5743   -3.0803    2.2120 C   0  0  0  0  0  0  0  0  0  0  0  0
    6.5726   -2.4901    3.4714 C   0  0  0  0  0  0  0  0  0  0  0  0
    5.4960   -1.7016    3.8452 C   0  0  0  0  0  0  0  0  0  0  0  0
    4.4133   -1.4907    2.9793 C   0  0  0  0  0  0  0  0  0  0  0  0
    3.1442   -0.4635    3.5719 Cl  0  0  0  0  0  0  0  0  0  0  0  0
    5.5246   -1.1280    5.0591 F   0  0  0  0  0  0  0  0  0  0  0  0
    5.6049   -3.7040   -0.1897 Cl  0  0  0  0  0  0  0  0  0  0  0  0
    3.0720   -0.4474    0.5548 O   0  0  0  0  0  0  0  0  0  0  0  0
    2.2690   -0.1033   -0.4990 C   0  0  0  0  0  0  0  0  0  0  0  0
    0.9487    0.2594   -0.2200 C   0  0  0  0  0  0  0  0  0  0  0  0
    0.1020    0.6573   -1.2546 C   0  0  0  0  0  0  0  0  0  0  0  0
    0.6602    0.6843   -2.5295 C   0  0  0  0  0  0  0  0  0  0  0  0
    1.9525    0.3771   -2.8208 N   0  0  0  0  0  0  0  0  0  0  0  0
    2.7536    0.0093   -1.8061 C   0  0  0  0  0  0  0  0  0  0  0  0
    4.0981   -0.2500   -2.1140 N   0  0  0  0  0  0  0  0  0  0  0  0
   -1.2800    1.0188   -0.9910 C   0  0  0  0  0  0  0  0  0  0  0  0
   -2.0443    0.9267    0.1966 C   0  0  0  0  0  0  0  0  0  0  0  0
   -3.2928    1.3713    0.0486 N   0  0  0  0  0  0  0  0  0  0  0  0
   -3.3435    1.7646   -1.2348 N   0  0  0  0  0  0  0  0  0  0  0  0
   -2.1625    1.5694   -1.8998 C   0  0  0  0  0  0  0  0  0  0  0  0
   -4.5921    2.3013   -1.7632 C   0  0  0  0  0  0  0  0  0  0  0  0
   -4.4210    3.7024   -2.3633 C   0  0  0  0  0  0  0  0  0  0  0  0
   -5.7450    4.2058   -2.9276 C   0  0  0  0  0  0  0  0  0  0  0  0
   -6.3095    3.2697   -3.9010 N   0  0  0  0  0  0  0  0  0  0  0  0
   -6.5290    1.9463   -3.3145 C   0  0  0  0  0  0  0  0  0  0  0  0
   -5.2360    1.3463   -2.7741 C   0  0  0  0  0  0  0  0  0  0  0  0
    1.4764   -2.0670    2.0463 H   0  0  0  0  0  0  0  0  0  0  0  0
    2.1436   -3.6143    1.4837 H   0  0  0  0  0  0  0  0  0  0  0  0
    1.2004   -2.5889    0.4001 H   0  0  0  0  0  0  0  0  0  0  0  0
    3.4716   -2.2998   -0.2559 H   0  0  0  0  0  0  0  0  0  0  0  0
    7.4310   -3.6843    1.9122 H   0  0  0  0  0  0  0  0  0  0  0  0
    7.4030   -2.6274    4.1576 H   0  0  0  0  0  0  0  0  0  0  0  0
    0.6082    0.2291    0.8105 H   0  0  0  0  0  0  0  0  0  0  0  0
    0.0808    0.9691   -3.4029 H   0  0  0  0  0  0  0  0  0  0  0  0
    4.3227   -1.2211   -1.9204 H   0  0  0  0  0  0  0  0  0  0  0  0
    4.6816    0.3246   -1.5125 H   0  0  0  0  0  0  0  0  0  0  0  0
   -1.7461    0.5533    1.1676 H   0  0  0  0  0  0  0  0  0  0  0  0
   -2.0604    1.8464   -2.9372 H   0  0  0  0  0  0  0  0  0  0  0  0
   -5.2718    2.3898   -0.9022 H   0  0  0  0  0  0  0  0  0  0  0  0
   -4.0585    4.3971   -1.5987 H   0  0  0  0  0  0  0  0  0  0  0  0
   -3.6678    3.6957   -3.1617 H   0  0  0  0  0  0  0  0  0  0  0  0
   -5.5896    5.1751   -3.4178 H   0  0  0  0  0  0  0  0  0  0  0  0
   -6.4626    4.3802   -2.1164 H   0  0  0  0  0  0  0  0  0  0  0  0
   -5.6830    3.1908   -4.7055 H   0  0  0  0  0  0  0  0  0  0  0  0
   -7.2804    2.0141   -2.5174 H   0  0  0  0  0  0  0  0  0  0  0  0
   -6.9468    1.2830   -4.0804 H   0  0  0  0  0  0  0  0  0  0  0  0
   -4.5464    1.1444   -3.6067 H   0  0  0  0  0  0  0  0  0  0  0  0
   -5.4474    0.3799   -2.2990 H   0  0  0  0  0  0  0  0  0  0  0  0
  1  2  1  0
  2  3  1  0
  3  4  2  0
  4  5  1  0
  5  6  2  0
  6  7  1  0
  7  8  2  0
  8  9  1  0
  7 10  1  0
  4 11  1  0
  2 12  1  0
 12 13  1  0
 13 14  2  0
 14 15  1  0
 15 16  2  0
 16 17  1  0
 17 18  2  0
 18 19  1  0
 15 20  1  0
 20 21  1  0
 21 22  2  0
 22 23  1  0
 23 24  1  0
 23 25  1  0
 25 26  1  0
 26 27  1  0
 27 28  1  0
 28 29  1  0
 29 30  1  0
  8  3  1  0
 18 13  1  0
 24 20  2  0
 30 25  1  0
  1 31  1  0
  1 32  1  0
  1 33  1  0
  2 34  1  6
  5 35  1  0
  6 36  1  0
 14 37  1  0
 16 38  1  0
 19 39  1  0
 19 40  1  0
 21 41  1  0
 24 42  1  0
 25 43  1  0
 26 44  1  0
 26 45  1  0
 27 46  1  0
 27 47  1  0
 28 48  1  0
 29 49  1  0
 29 50  1  0
 30 51  1  0
 30 52  1  0
M  END
>  <energy_abs>  (90) 
37.07795056466933

>  <SMILES>  (90) 
C[C@H](c1c(ccc(c1Cl)F)Cl)Oc2cc(cnc2N)c3cnn(c3)C4CCNCC4

>  <cluster_no>  (90) 
90

>  <fda_drugs_id>  (90) 
KTEIFNKAUNYNJU-GFCCVEGCSA-N

>  <initial_conformation_id>  (90) 
215

>  <minimize_method>  (90) 
MMFF

$$$$

     RDKit          3D

 52 55  0  0  0  0  0  0  0  0999 V2000
    1.8181   -2.5069    1.5553 C   0  0  0  0  0  0  0  0  0  0  0  0
    3.0636   -1.8394    0.9544 C   0  0  2  0  0  0  0  0  0  0  0  0
    4.2994   -2.0293    1.8359 C   0  0  0  0  0  0  0  0  0  0  0  0
    5.3618   -2.8665    1.4190 C   0  0  0  0  0  0  0  0  0  0  0  0
    6.5070   -3.0541    2.2140 C   0  0  0  0  0  0  0  0  0  0  0  0
    6.6139   -2.4269    3.4524 C   0  0  0  0  0  0  0  0  0  0  0  0
    5.5872   -1.6011    3.8831 C   0  0  0  0  0  0  0  0  0  0  0  0
    4.4386   -1.3905    3.0964 C   0  0  0  0  0  0  0  0  0  0  0  0
    3.2124   -0.3625    3.7682 Cl  0  0  0  0  0  0  0  0  0  0  0  0
    5.6979   -1.0324    5.0984 F   0  0  0  0  0  0  0  0  0  0  0  0
    5.3509   -3.7117   -0.0964 Cl  0  0  0  0  0  0  0  0  0  0  0  0
    2.8698   -0.4244    0.7494 O   0  0  0  0  0  0  0  0  0  0  0  0
    2.2386   -0.1407   -0.4342 C   0  0  0  0  0  0  0  0  0  0  0  0
    0.8794    0.1752   -0.3903 C   0  0  0  0  0  0  0  0  0  0  0  0
    0.2114    0.5148   -1.5683 C   0  0  0  0  0  0  0  0  0  0  0  0
    0.9730    0.5164   -2.7370 C   0  0  0  0  0  0  0  0  0  0  0  0
    2.3049    0.2464   -2.7993 N   0  0  0  0  0  0  0  0  0  0  0  0
    2.9330   -0.0523   -1.6496 C   0  0  0  0  0  0  0  0  0  0  0  0
    4.3190   -0.2582   -1.7143 N   0  0  0  0  0  0  0  0  0  0  0  0
   -1.2016    0.8571   -1.5567 C   0  0  0  0  0  0  0  0  0  0  0  0
   -2.2043    0.6289   -0.5803 C   0  0  0  0  0  0  0  0  0  0  0  0
   -3.3914    1.1330   -0.9222 N   0  0  0  0  0  0  0  0  0  0  0  0
   -3.1643    1.6880   -2.1278 N   0  0  0  0  0  0  0  0  0  0  0  0
   -1.8659    1.5525   -2.5472 C   0  0  0  0  0  0  0  0  0  0  0  0
   -4.2378    2.3811   -2.8401 C   0  0  0  0  0  0  0  0  0  0  0  0
   -5.5355    1.5557   -2.9106 C   0  0  0  0  0  0  0  0  0  0  0  0
   -6.5547    2.0538   -1.8899 C   0  0  0  0  0  0  0  0  0  0  0  0
   -6.9377    3.4471   -2.1336 N   0  0  0  0  0  0  0  0  0  0  0  0
   -5.8442    4.3019   -2.5977 C   0  0  0  0  0  0  0  0  0  0  0  0
   -4.4574    3.7777   -2.2423 C   0  0  0  0  0  0  0  0  0  0  0  0
    2.0282   -3.5326    1.8733 H   0  0  0  0  0  0  0  0  0  0  0  0
    1.0265   -2.5512    0.8029 H   0  0  0  0  0  0  0  0  0  0  0  0
    1.3997   -1.9547    2.4040 H   0  0  0  0  0  0  0  0  0  0  0  0
    3.2236   -2.3154   -0.0209 H   0  0  0  0  0  0  0  0  0  0  0  0
    7.3154   -3.7046    1.8778 H   0  0  0  0  0  0  0  0  0  0  0  0
    7.4926   -2.5809    4.0828 H   0  0  0  0  0  0  0  0  0  0  0  0
    0.3656    0.1665    0.5700 H   0  0  0  0  0  0  0  0  0  0  0  0
    0.5342    0.7487   -3.7046 H   0  0  0  0  0  0  0  0  0  0  0  0
    4.5432   -1.2060   -1.4337 H   0  0  0  0  0  0  0  0  0  0  0  0
    4.7664    0.3733   -1.0507 H   0  0  0  0  0  0  0  0  0  0  0  0
   -2.1190    0.1177    0.3703 H   0  0  0  0  0  0  0  0  0  0  0  0
   -1.5389    1.9745   -3.4888 H   0  0  0  0  0  0  0  0  0  0  0  0
   -3.8759    2.4931   -3.8725 H   0  0  0  0  0  0  0  0  0  0  0  0
   -5.9694    1.6537   -3.9174 H   0  0  0  0  0  0  0  0  0  0  0  0
   -5.3452    0.4848   -2.7670 H   0  0  0  0  0  0  0  0  0  0  0  0
   -7.4578    1.4338   -1.9384 H   0  0  0  0  0  0  0  0  0  0  0  0
   -6.1539    1.9527   -0.8726 H   0  0  0  0  0  0  0  0  0  0  0  0
   -7.3410    3.8304   -1.2747 H   0  0  0  0  0  0  0  0  0  0  0  0
   -5.9757    5.3060   -2.1796 H   0  0  0  0  0  0  0  0  0  0  0  0
   -5.9221    4.4073   -3.6880 H   0  0  0  0  0  0  0  0  0  0  0  0
   -3.6859    4.4642   -2.6162 H   0  0  0  0  0  0  0  0  0  0  0  0
   -4.3456    3.7659   -1.1474 H   0  0  0  0  0  0  0  0  0  0  0  0
  1  2  1  0
  2  3  1  0
  3  4  2  0
  4  5  1  0
  5  6  2  0
  6  7  1  0
  7  8  2  0
  8  9  1  0
  7 10  1  0
  4 11  1  0
  2 12  1  0
 12 13  1  0
 13 14  2  0
 14 15  1  0
 15 16  2  0
 16 17  1  0
 17 18  2  0
 18 19  1  0
 15 20  1  0
 20 21  1  0
 21 22  2  0
 22 23  1  0
 23 24  1  0
 23 25  1  0
 25 26  1  0
 26 27  1  0
 27 28  1  0
 28 29  1  0
 29 30  1  0
  8  3  1  0
 18 13  1  0
 24 20  2  0
 30 25  1  0
  1 31  1  0
  1 32  1  0
  1 33  1  0
  2 34  1  6
  5 35  1  0
  6 36  1  0
 14 37  1  0
 16 38  1  0
 19 39  1  0
 19 40  1  0
 21 41  1  0
 24 42  1  0
 25 43  1  0
 26 44  1  0
 26 45  1  0
 27 46  1  0
 27 47  1  0
 28 48  1  0
 29 49  1  0
 29 50  1  0
 30 51  1  0
 30 52  1  0
M  END
>  <energy_abs>  (91) 
40.044809641285596

>  <SMILES>  (91) 
C[C@H](c1c(ccc(c1Cl)F)Cl)Oc2cc(cnc2N)c3cnn(c3)C4CCNCC4

>  <cluster_no>  (91) 
91

>  <fda_drugs_id>  (91) 
KTEIFNKAUNYNJU-GFCCVEGCSA-N

>  <initial_conformation_id>  (91) 
214

>  <minimize_method>  (91) 
MMFF

$$$$

     RDKit          3D

 52 55  0  0  0  0  0  0  0  0999 V2000
    2.5773    1.1765    3.4110 C   0  0  0  0  0  0  0  0  0  0  0  0
    2.3251    0.5113    2.0553 C   0  0  2  0  0  0  0  0  0  0  0  0
    2.7787   -0.9467    2.0415 C   0  0  0  0  0  0  0  0  0  0  0  0
    1.8269   -1.9951    1.9761 C   0  0  0  0  0  0  0  0  0  0  0  0
    2.2194   -3.3414    1.9570 C   0  0  0  0  0  0  0  0  0  0  0  0
    3.5676   -3.6804    2.0135 C   0  0  0  0  0  0  0  0  0  0  0  0
    4.5174   -2.6715    2.0869 C   0  0  0  0  0  0  0  0  0  0  0  0
    4.1442   -1.3206    2.0984 C   0  0  0  0  0  0  0  0  0  0  0  0
    5.4370   -0.1673    2.1821 Cl  0  0  0  0  0  0  0  0  0  0  0  0
    5.8139   -3.0236    2.1601 F   0  0  0  0  0  0  0  0  0  0  0  0
    0.1177   -1.7105    1.9318 Cl  0  0  0  0  0  0  0  0  0  0  0  0
    2.9692    1.3041    1.0382 O   0  0  0  0  0  0  0  0  0  0  0  0
    2.5896    1.0359   -0.2553 C   0  0  0  0  0  0  0  0  0  0  0  0
    1.2591    0.8957   -0.6503 C   0  0  0  0  0  0  0  0  0  0  0  0
    0.9562    0.6120   -1.9842 C   0  0  0  0  0  0  0  0  0  0  0  0
    2.0252    0.5036   -2.8682 C   0  0  0  0  0  0  0  0  0  0  0  0
    3.3237    0.6739   -2.5239 N   0  0  0  0  0  0  0  0  0  0  0  0
    3.5934    0.9488   -1.2350 C   0  0  0  0  0  0  0  0  0  0  0  0
    4.9412    1.1748   -0.8999 N   0  0  0  0  0  0  0  0  0  0  0  0
   -0.4116    0.4310   -2.4300 C   0  0  0  0  0  0  0  0  0  0  0  0
   -0.9557   -0.3439   -3.4787 C   0  0  0  0  0  0  0  0  0  0  0  0
   -2.2868   -0.2470   -3.5611 N   0  0  0  0  0  0  0  0  0  0  0  0
   -2.6080    0.6091   -2.5683 N   0  0  0  0  0  0  0  0  0  0  0  0
   -1.5142    1.0424   -1.8691 C   0  0  0  0  0  0  0  0  0  0  0  0
   -4.0153    0.9451   -2.3458 C   0  0  0  0  0  0  0  0  0  0  0  0
   -4.5867    0.2014   -1.1335 C   0  0  0  0  0  0  0  0  0  0  0  0
   -4.1945    0.8462    0.1984 C   0  0  0  0  0  0  0  0  0  0  0  0
   -4.0343    2.2991    0.1421 N   0  0  0  0  0  0  0  0  0  0  0  0
   -4.8186    2.9056   -0.9217 C   0  0  0  0  0  0  0  0  0  0  0  0
   -4.2724    2.4639   -2.2788 C   0  0  0  0  0  0  0  0  0  0  0  0
    2.1722    0.5754    4.2310 H   0  0  0  0  0  0  0  0  0  0  0  0
    3.6387    1.3628    3.6029 H   0  0  0  0  0  0  0  0  0  0  0  0
    2.0992    2.1621    3.4368 H   0  0  0  0  0  0  0  0  0  0  0  0
    1.2452    0.5926    1.9252 H   0  0  0  0  0  0  0  0  0  0  0  0
    1.4748   -4.1361    1.9010 H   0  0  0  0  0  0  0  0  0  0  0  0
    3.8829   -4.7204    2.0010 H   0  0  0  0  0  0  0  0  0  0  0  0
    0.4512    1.0154    0.0654 H   0  0  0  0  0  0  0  0  0  0  0  0
    1.8737    0.2918   -3.9235 H   0  0  0  0  0  0  0  0  0  0  0  0
    5.1847    0.5641   -0.1269 H   0  0  0  0  0  0  0  0  0  0  0  0
    5.0114    2.1206   -0.5288 H   0  0  0  0  0  0  0  0  0  0  0  0
   -0.4414   -0.9877   -4.1823 H   0  0  0  0  0  0  0  0  0  0  0  0
   -1.6141    1.7422   -1.0508 H   0  0  0  0  0  0  0  0  0  0  0  0
   -4.5375    0.5662   -3.2380 H   0  0  0  0  0  0  0  0  0  0  0  0
   -5.6836    0.2062   -1.2132 H   0  0  0  0  0  0  0  0  0  0  0  0
   -4.2832   -0.8539   -1.1360 H   0  0  0  0  0  0  0  0  0  0  0  0
   -4.9574    0.5931    0.9466 H   0  0  0  0  0  0  0  0  0  0  0  0
   -3.2573    0.4114    0.5623 H   0  0  0  0  0  0  0  0  0  0  0  0
   -4.2932    2.7014    1.0440 H   0  0  0  0  0  0  0  0  0  0  0  0
   -5.8785    2.6507   -0.8172 H   0  0  0  0  0  0  0  0  0  0  0  0
   -4.7487    3.9968   -0.8491 H   0  0  0  0  0  0  0  0  0  0  0  0
   -5.0034    2.7438   -3.0533 H   0  0  0  0  0  0  0  0  0  0  0  0
   -3.3579    3.0332   -2.5109 H   0  0  0  0  0  0  0  0  0  0  0  0
  1  2  1  0
  2  3  1  0
  3  4  2  0
  4  5  1  0
  5  6  2  0
  6  7  1  0
  7  8  2  0
  8  9  1  0
  7 10  1  0
  4 11  1  0
  2 12  1  0
 12 13  1  0
 13 14  2  0
 14 15  1  0
 15 16  2  0
 16 17  1  0
 17 18  2  0
 18 19  1  0
 15 20  1  0
 20 21  1  0
 21 22  2  0
 22 23  1  0
 23 24  1  0
 23 25  1  0
 25 26  1  0
 26 27  1  0
 27 28  1  0
 28 29  1  0
 29 30  1  0
  8  3  1  0
 18 13  1  0
 24 20  2  0
 30 25  1  0
  1 31  1  0
  1 32  1  0
  1 33  1  0
  2 34  1  6
  5 35  1  0
  6 36  1  0
 14 37  1  0
 16 38  1  0
 19 39  1  0
 19 40  1  0
 21 41  1  0
 24 42  1  0
 25 43  1  0
 26 44  1  0
 26 45  1  0
 27 46  1  0
 27 47  1  0
 28 48  1  0
 29 49  1  0
 29 50  1  0
 30 51  1  0
 30 52  1  0
M  END
>  <energy_abs>  (92) 
37.46133759305923

>  <SMILES>  (92) 
C[C@H](c1c(ccc(c1Cl)F)Cl)Oc2cc(cnc2N)c3cnn(c3)C4CCNCC4

>  <cluster_no>  (92) 
92

>  <fda_drugs_id>  (92) 
KTEIFNKAUNYNJU-GFCCVEGCSA-N

>  <initial_conformation_id>  (92) 
213

>  <minimize_method>  (92) 
MMFF

$$$$

     RDKit          3D

 52 55  0  0  0  0  0  0  0  0999 V2000
    2.6097    0.3733    2.6060 C   0  0  0  0  0  0  0  0  0  0  0  0
    2.8013   -0.7985    1.6401 C   0  0  2  0  0  0  0  0  0  0  0  0
    3.7029   -1.8637    2.2658 C   0  0  0  0  0  0  0  0  0  0  0  0
    3.1384   -3.0274    2.8402 C   0  0  0  0  0  0  0  0  0  0  0  0
    3.9382   -4.0288    3.4097 C   0  0  0  0  0  0  0  0  0  0  0  0
    5.3200   -3.8913    3.4346 C   0  0  0  0  0  0  0  0  0  0  0  0
    5.8956   -2.7458    2.9041 C   0  0  0  0  0  0  0  0  0  0  0  0
    5.1109   -1.7351    2.3302 C   0  0  0  0  0  0  0  0  0  0  0  0
    5.9612   -0.3396    1.7462 Cl  0  0  0  0  0  0  0  0  0  0  0  0
    7.2306   -2.6261    2.9610 F   0  0  0  0  0  0  0  0  0  0  0  0
    1.4286   -3.2971    2.9144 Cl  0  0  0  0  0  0  0  0  0  0  0  0
    3.3767   -0.3696    0.4014 O   0  0  0  0  0  0  0  0  0  0  0  0
    2.6097    0.2375   -0.5559 C   0  0  0  0  0  0  0  0  0  0  0  0
    1.2295    0.4344   -0.5045 C   0  0  0  0  0  0  0  0  0  0  0  0
    0.5750    1.0665   -1.5670 C   0  0  0  0  0  0  0  0  0  0  0  0
    1.3563    1.4782   -2.6416 C   0  0  0  0  0  0  0  0  0  0  0  0
    2.6951    1.3014   -2.7264 N   0  0  0  0  0  0  0  0  0  0  0  0
    3.3030    0.6904   -1.6947 C   0  0  0  0  0  0  0  0  0  0  0  0
    4.6967    0.5053   -1.7896 N   0  0  0  0  0  0  0  0  0  0  0  0
   -0.8578    1.2843   -1.5335 C   0  0  0  0  0  0  0  0  0  0  0  0
   -1.7325    1.5083   -0.4460 C   0  0  0  0  0  0  0  0  0  0  0  0
   -3.0047    1.6427   -0.8256 N   0  0  0  0  0  0  0  0  0  0  0  0
   -2.9560    1.5060   -2.1646 N   0  0  0  0  0  0  0  0  0  0  0  0
   -1.6890    1.2898   -2.6354 C   0  0  0  0  0  0  0  0  0  0  0  0
   -4.1753    1.5868   -2.9647 C   0  0  0  0  0  0  0  0  0  0  0  0
   -5.3050    0.6964   -2.4189 C   0  0  0  0  0  0  0  0  0  0  0  0
   -6.3178    1.5183   -1.6294 C   0  0  0  0  0  0  0  0  0  0  0  0
   -6.9454    2.5697   -2.4316 N   0  0  0  0  0  0  0  0  0  0  0  0
   -6.0974    3.1192   -3.4871 C   0  0  0  0  0  0  0  0  0  0  0  0
   -4.6137    3.0470   -3.1486 C   0  0  0  0  0  0  0  0  0  0  0  0
    3.5506    0.8925    2.8125 H   0  0  0  0  0  0  0  0  0  0  0  0
    1.9349    1.1261    2.1873 H   0  0  0  0  0  0  0  0  0  0  0  0
    2.1912    0.0370    3.5605 H   0  0  0  0  0  0  0  0  0  0  0  0
    1.8345   -1.2524    1.4174 H   0  0  0  0  0  0  0  0  0  0  0  0
    3.4838   -4.9188    3.8414 H   0  0  0  0  0  0  0  0  0  0  0  0
    5.9505   -4.6580    3.8739 H   0  0  0  0  0  0  0  0  0  0  0  0
    0.6416    0.0957    0.3398 H   0  0  0  0  0  0  0  0  0  0  0  0
    0.9254    1.9907   -3.4970 H   0  0  0  0  0  0  0  0  0  0  0  0
    4.8801   -0.4908   -1.7022 H   0  0  0  0  0  0  0  0  0  0  0  0
    5.1186    0.9301   -0.9666 H   0  0  0  0  0  0  0  0  0  0  0  0
   -1.4972    1.5836    0.6084 H   0  0  0  0  0  0  0  0  0  0  0  0
   -1.4995    1.1492   -3.6907 H   0  0  0  0  0  0  0  0  0  0  0  0
   -3.9002    1.1815   -3.9487 H   0  0  0  0  0  0  0  0  0  0  0  0
   -5.8229    0.2199   -3.2628 H   0  0  0  0  0  0  0  0  0  0  0  0
   -4.9147   -0.1213   -1.8009 H   0  0  0  0  0  0  0  0  0  0  0  0
   -5.8367    1.9778   -0.7581 H   0  0  0  0  0  0  0  0  0  0  0  0
   -7.0998    0.8599   -1.2341 H   0  0  0  0  0  0  0  0  0  0  0  0
   -7.8253    2.2423   -2.8280 H   0  0  0  0  0  0  0  0  0  0  0  0
   -6.2828    2.5750   -4.4218 H   0  0  0  0  0  0  0  0  0  0  0  0
   -6.3871    4.1607   -3.6644 H   0  0  0  0  0  0  0  0  0  0  0  0
   -4.0231    3.5101   -3.9488 H   0  0  0  0  0  0  0  0  0  0  0  0
   -4.4179    3.6388   -2.2445 H   0  0  0  0  0  0  0  0  0  0  0  0
  1  2  1  0
  2  3  1  0
  3  4  2  0
  4  5  1  0
  5  6  2  0
  6  7  1  0
  7  8  2  0
  8  9  1  0
  7 10  1  0
  4 11  1  0
  2 12  1  0
 12 13  1  0
 13 14  2  0
 14 15  1  0
 15 16  2  0
 16 17  1  0
 17 18  2  0
 18 19  1  0
 15 20  1  0
 20 21  1  0
 21 22  2  0
 22 23  1  0
 23 24  1  0
 23 25  1  0
 25 26  1  0
 26 27  1  0
 27 28  1  0
 28 29  1  0
 29 30  1  0
  8  3  1  0
 18 13  1  0
 24 20  2  0
 30 25  1  0
  1 31  1  0
  1 32  1  0
  1 33  1  0
  2 34  1  6
  5 35  1  0
  6 36  1  0
 14 37  1  0
 16 38  1  0
 19 39  1  0
 19 40  1  0
 21 41  1  0
 24 42  1  0
 25 43  1  0
 26 44  1  0
 26 45  1  0
 27 46  1  0
 27 47  1  0
 28 48  1  0
 29 49  1  0
 29 50  1  0
 30 51  1  0
 30 52  1  0
M  END
>  <energy_abs>  (93) 
39.617542124527944

>  <SMILES>  (93) 
C[C@H](c1c(ccc(c1Cl)F)Cl)Oc2cc(cnc2N)c3cnn(c3)C4CCNCC4

>  <cluster_no>  (93) 
93

>  <fda_drugs_id>  (93) 
KTEIFNKAUNYNJU-GFCCVEGCSA-N

>  <initial_conformation_id>  (93) 
212

>  <minimize_method>  (93) 
MMFF

$$$$

     RDKit          3D

 52 55  0  0  0  0  0  0  0  0999 V2000
    1.6439   -1.5406    2.6363 C   0  0  0  0  0  0  0  0  0  0  0  0
    2.7122   -1.5541    1.5407 C   0  0  2  0  0  0  0  0  0  0  0  0
    4.0627   -2.0221    2.0738 C   0  0  0  0  0  0  0  0  0  0  0  0
    4.5532   -3.3101    1.7530 C   0  0  0  0  0  0  0  0  0  0  0  0
    5.7922   -3.7646    2.2275 C   0  0  0  0  0  0  0  0  0  0  0  0
    6.5713   -2.9523    3.0414 C   0  0  0  0  0  0  0  0  0  0  0  0
    6.1075   -1.6901    3.3793 C   0  0  0  0  0  0  0  0  0  0  0  0
    4.8723   -1.2181    2.9114 C   0  0  0  0  0  0  0  0  0  0  0  0
    4.4117    0.3724    3.4242 Cl  0  0  0  0  0  0  0  0  0  0  0  0
    6.8780   -0.9268    4.1696 F   0  0  0  0  0  0  0  0  0  0  0  0
    3.6732   -4.4244    0.7609 Cl  0  0  0  0  0  0  0  0  0  0  0  0
    2.8574   -0.2426    0.9624 O   0  0  0  0  0  0  0  0  0  0  0  0
    2.1943   -0.1211   -0.2308 C   0  0  0  0  0  0  0  0  0  0  0  0
    0.9308    0.4670   -0.2330 C   0  0  0  0  0  0  0  0  0  0  0  0
    0.2489    0.6229   -1.4394 C   0  0  0  0  0  0  0  0  0  0  0  0
    0.9039    0.1881   -2.5893 C   0  0  0  0  0  0  0  0  0  0  0  0
    2.1447   -0.3630   -2.6141 N   0  0  0  0  0  0  0  0  0  0  0  0
    2.7889   -0.4926   -1.4433 C   0  0  0  0  0  0  0  0  0  0  0  0
    4.0816   -1.0370   -1.4781 N   0  0  0  0  0  0  0  0  0  0  0  0
   -1.0733    1.2186   -1.4797 C   0  0  0  0  0  0  0  0  0  0  0  0
   -1.7031    2.1292   -0.6001 C   0  0  0  0  0  0  0  0  0  0  0  0
   -2.9469    2.4356   -0.9747 N   0  0  0  0  0  0  0  0  0  0  0  0
   -3.1245    1.7259   -2.1046 N   0  0  0  0  0  0  0  0  0  0  0  0
   -2.0295    0.9776   -2.4460 C   0  0  0  0  0  0  0  0  0  0  0  0
   -4.3829    1.8041   -2.8426 C   0  0  0  0  0  0  0  0  0  0  0  0
   -5.6183    1.6396   -1.9386 C   0  0  0  0  0  0  0  0  0  0  0  0
   -6.2521    2.9905   -1.6308 C   0  0  0  0  0  0  0  0  0  0  0  0
   -6.6931    3.6953   -2.8363 N   0  0  0  0  0  0  0  0  0  0  0  0
   -5.8813    3.4396   -4.0233 C   0  0  0  0  0  0  0  0  0  0  0  0
   -4.4389    3.0857   -3.6871 C   0  0  0  0  0  0  0  0  0  0  0  0
    1.8143   -0.7558    3.3790 H   0  0  0  0  0  0  0  0  0  0  0  0
    0.6590   -1.3362    2.2011 H   0  0  0  0  0  0  0  0  0  0  0  0
    1.5897   -2.5042    3.1537 H   0  0  0  0  0  0  0  0  0  0  0  0
    2.3534   -2.2445    0.7705 H   0  0  0  0  0  0  0  0  0  0  0  0
    6.1538   -4.7572    1.9657 H   0  0  0  0  0  0  0  0  0  0  0  0
    7.5324   -3.2933    3.4177 H   0  0  0  0  0  0  0  0  0  0  0  0
    0.4938    0.7889    0.7067 H   0  0  0  0  0  0  0  0  0  0  0  0
    0.4508    0.2835   -3.5723 H   0  0  0  0  0  0  0  0  0  0  0  0
    4.7033   -0.4011   -0.9818 H   0  0  0  0  0  0  0  0  0  0  0  0
    4.0891   -1.9217   -0.9844 H   0  0  0  0  0  0  0  0  0  0  0  0
   -1.3056    2.5870    0.2955 H   0  0  0  0  0  0  0  0  0  0  0  0
   -2.0335    0.3495   -3.3276 H   0  0  0  0  0  0  0  0  0  0  0  0
   -4.3719    0.9400   -3.5226 H   0  0  0  0  0  0  0  0  0  0  0  0
   -6.3586    1.0153   -2.4574 H   0  0  0  0  0  0  0  0  0  0  0  0
   -5.3752    1.1126   -1.0077 H   0  0  0  0  0  0  0  0  0  0  0  0
   -7.1118    2.8544   -0.9642 H   0  0  0  0  0  0  0  0  0  0  0  0
   -5.5429    3.6267   -1.0893 H   0  0  0  0  0  0  0  0  0  0  0  0
   -7.6714    3.4873   -3.0337 H   0  0  0  0  0  0  0  0  0  0  0  0
   -5.9063    4.3282   -4.6638 H   0  0  0  0  0  0  0  0  0  0  0  0
   -6.3294    2.6205   -4.5999 H   0  0  0  0  0  0  0  0  0  0  0  0
   -3.9718    3.9292   -3.1613 H   0  0  0  0  0  0  0  0  0  0  0  0
   -3.8618    2.9455   -4.6090 H   0  0  0  0  0  0  0  0  0  0  0  0
  1  2  1  0
  2  3  1  0
  3  4  2  0
  4  5  1  0
  5  6  2  0
  6  7  1  0
  7  8  2  0
  8  9  1  0
  7 10  1  0
  4 11  1  0
  2 12  1  0
 12 13  1  0
 13 14  2  0
 14 15  1  0
 15 16  2  0
 16 17  1  0
 17 18  2  0
 18 19  1  0
 15 20  1  0
 20 21  1  0
 21 22  2  0
 22 23  1  0
 23 24  1  0
 23 25  1  0
 25 26  1  0
 26 27  1  0
 27 28  1  0
 28 29  1  0
 29 30  1  0
  8  3  1  0
 18 13  1  0
 24 20  2  0
 30 25  1  0
  1 31  1  0
  1 32  1  0
  1 33  1  0
  2 34  1  6
  5 35  1  0
  6 36  1  0
 14 37  1  0
 16 38  1  0
 19 39  1  0
 19 40  1  0
 21 41  1  0
 24 42  1  0
 25 43  1  0
 26 44  1  0
 26 45  1  0
 27 46  1  0
 27 47  1  0
 28 48  1  0
 29 49  1  0
 29 50  1  0
 30 51  1  0
 30 52  1  0
M  END
>  <energy_abs>  (94) 
40.692343269574366

>  <SMILES>  (94) 
C[C@H](c1c(ccc(c1Cl)F)Cl)Oc2cc(cnc2N)c3cnn(c3)C4CCNCC4

>  <cluster_no>  (94) 
94

>  <fda_drugs_id>  (94) 
KTEIFNKAUNYNJU-GFCCVEGCSA-N

>  <initial_conformation_id>  (94) 
211

>  <minimize_method>  (94) 
MMFF

$$$$

     RDKit          3D

 52 55  0  0  0  0  0  0  0  0999 V2000
    5.1886   -2.6783    1.0318 C   0  0  0  0  0  0  0  0  0  0  0  0
    4.0750   -1.7897    0.4717 C   0  0  2  0  0  0  0  0  0  0  0  0
    3.5164   -0.8613    1.5463 C   0  0  0  0  0  0  0  0  0  0  0  0
    3.8748    0.5071    1.5623 C   0  0  0  0  0  0  0  0  0  0  0  0
    3.3708    1.3869    2.5308 C   0  0  0  0  0  0  0  0  0  0  0  0
    2.5039    0.9258    3.5129 C   0  0  0  0  0  0  0  0  0  0  0  0
    2.1501   -0.4151    3.5262 C   0  0  0  0  0  0  0  0  0  0  0  0
    2.6455   -1.3092    2.5663 C   0  0  0  0  0  0  0  0  0  0  0  0
    2.1329   -2.9575    2.7086 Cl  0  0  0  0  0  0  0  0  0  0  0  0
    1.3147   -0.8371    4.4875 F   0  0  0  0  0  0  0  0  0  0  0  0
    4.9642    1.2007    0.4091 Cl  0  0  0  0  0  0  0  0  0  0  0  0
    3.0657   -2.6464   -0.1030 O   0  0  0  0  0  0  0  0  0  0  0  0
    2.4917   -2.0775   -1.2126 C   0  0  0  0  0  0  0  0  0  0  0  0
    1.3822   -1.2469   -1.0619 C   0  0  0  0  0  0  0  0  0  0  0  0
    0.7915   -0.6749   -2.1892 C   0  0  0  0  0  0  0  0  0  0  0  0
    1.3558   -1.0025   -3.4208 C   0  0  0  0  0  0  0  0  0  0  0  0
    2.4141   -1.8357   -3.5940 N   0  0  0  0  0  0  0  0  0  0  0  0
    2.9614   -2.3794   -2.4959 C   0  0  0  0  0  0  0  0  0  0  0  0
    4.0286   -3.2729   -2.6786 N   0  0  0  0  0  0  0  0  0  0  0  0
   -0.3572    0.2107   -2.0983 C   0  0  0  0  0  0  0  0  0  0  0  0
   -1.2637    0.6551   -3.0907 C   0  0  0  0  0  0  0  0  0  0  0  0
   -2.1947    1.4827   -2.6117 N   0  0  0  0  0  0  0  0  0  0  0  0
   -1.9012    1.5699   -1.3023 N   0  0  0  0  0  0  0  0  0  0  0  0
   -0.8034    0.8327   -0.9488 C   0  0  0  0  0  0  0  0  0  0  0  0
   -2.7188    2.3885   -0.4112 C   0  0  0  0  0  0  0  0  0  0  0  0
   -4.0514    1.6941   -0.0960 C   0  0  0  0  0  0  0  0  0  0  0  0
   -5.0814    2.7118    0.3766 C   0  0  0  0  0  0  0  0  0  0  0  0
   -5.3774    3.7285   -0.6302 N   0  0  0  0  0  0  0  0  0  0  0  0
   -4.2843    3.9995   -1.5647 C   0  0  0  0  0  0  0  0  0  0  0  0
   -2.9094    3.8231   -0.9316 C   0  0  0  0  0  0  0  0  0  0  0  0
    5.6078   -3.3030    0.2350 H   0  0  0  0  0  0  0  0  0  0  0  0
    4.8242   -3.3672    1.7996 H   0  0  0  0  0  0  0  0  0  0  0  0
    5.9973   -2.0800    1.4643 H   0  0  0  0  0  0  0  0  0  0  0  0
    4.5345   -1.2174   -0.3414 H   0  0  0  0  0  0  0  0  0  0  0  0
    3.6581    2.4368    2.5238 H   0  0  0  0  0  0  0  0  0  0  0  0
    2.1085    1.5964    4.2698 H   0  0  0  0  0  0  0  0  0  0  0  0
    0.9814   -1.0727   -0.0699 H   0  0  0  0  0  0  0  0  0  0  0  0
    0.9692   -0.5975   -4.3522 H   0  0  0  0  0  0  0  0  0  0  0  0
    4.8468   -2.9208   -2.1956 H   0  0  0  0  0  0  0  0  0  0  0  0
    3.7755   -4.1519   -2.2328 H   0  0  0  0  0  0  0  0  0  0  0  0
   -1.2898    0.4097   -4.1448 H   0  0  0  0  0  0  0  0  0  0  0  0
   -0.4485    0.8202    0.0718 H   0  0  0  0  0  0  0  0  0  0  0  0
   -2.1414    2.4640    0.5209 H   0  0  0  0  0  0  0  0  0  0  0  0
   -3.8953    0.9307    0.6761 H   0  0  0  0  0  0  0  0  0  0  0  0
   -4.4419    1.1626   -0.9741 H   0  0  0  0  0  0  0  0  0  0  0  0
   -4.7150    3.2005    1.2880 H   0  0  0  0  0  0  0  0  0  0  0  0
   -6.0125    2.2011    0.6442 H   0  0  0  0  0  0  0  0  0  0  0  0
   -5.6850    4.5882   -0.1767 H   0  0  0  0  0  0  0  0  0  0  0  0
   -4.3884    5.0225   -1.9432 H   0  0  0  0  0  0  0  0  0  0  0  0
   -4.3886    3.3401   -2.4340 H   0  0  0  0  0  0  0  0  0  0  0  0
   -2.1245    4.1044   -1.6436 H   0  0  0  0  0  0  0  0  0  0  0  0
   -2.8209    4.5223   -0.0890 H   0  0  0  0  0  0  0  0  0  0  0  0
  1  2  1  0
  2  3  1  0
  3  4  2  0
  4  5  1  0
  5  6  2  0
  6  7  1  0
  7  8  2  0
  8  9  1  0
  7 10  1  0
  4 11  1  0
  2 12  1  0
 12 13  1  0
 13 14  2  0
 14 15  1  0
 15 16  2  0
 16 17  1  0
 17 18  2  0
 18 19  1  0
 15 20  1  0
 20 21  1  0
 21 22  2  0
 22 23  1  0
 23 24  1  0
 23 25  1  0
 25 26  1  0
 26 27  1  0
 27 28  1  0
 28 29  1  0
 29 30  1  0
  8  3  1  0
 18 13  1  0
 24 20  2  0
 30 25  1  0
  1 31  1  0
  1 32  1  0
  1 33  1  0
  2 34  1  6
  5 35  1  0
  6 36  1  0
 14 37  1  0
 16 38  1  0
 19 39  1  0
 19 40  1  0
 21 41  1  0
 24 42  1  0
 25 43  1  0
 26 44  1  0
 26 45  1  0
 27 46  1  0
 27 47  1  0
 28 48  1  0
 29 49  1  0
 29 50  1  0
 30 51  1  0
 30 52  1  0
M  END
>  <energy_abs>  (95) 
39.99330262937812

>  <SMILES>  (95) 
C[C@H](c1c(ccc(c1Cl)F)Cl)Oc2cc(cnc2N)c3cnn(c3)C4CCNCC4

>  <cluster_no>  (95) 
95

>  <fda_drugs_id>  (95) 
KTEIFNKAUNYNJU-GFCCVEGCSA-N

>  <initial_conformation_id>  (95) 
210

>  <minimize_method>  (95) 
MMFF

$$$$

     RDKit          3D

 52 55  0  0  0  0  0  0  0  0999 V2000
    5.5285   -2.4768    0.2953 C   0  0  0  0  0  0  0  0  0  0  0  0
    4.2482   -1.6455    0.1801 C   0  0  2  0  0  0  0  0  0  0  0  0
    3.8633   -1.0367    1.5258 C   0  0  0  0  0  0  0  0  0  0  0  0
    4.1154    0.3316    1.7864 C   0  0  0  0  0  0  0  0  0  0  0  0
    3.7633    0.9231    3.0069 C   0  0  0  0  0  0  0  0  0  0  0  0
    3.1591    0.1667    4.0040 C   0  0  0  0  0  0  0  0  0  0  0  0
    2.9163   -1.1805    3.7772 C   0  0  0  0  0  0  0  0  0  0  0  0
    3.2631   -1.7887    2.5622 C   0  0  0  0  0  0  0  0  0  0  0  0
    2.9216   -3.4821    2.4199 Cl  0  0  0  0  0  0  0  0  0  0  0  0
    2.3313   -1.8903    4.7544 F   0  0  0  0  0  0  0  0  0  0  0  0
    4.8870    1.3744    0.6373 Cl  0  0  0  0  0  0  0  0  0  0  0  0
    3.2167   -2.4947   -0.3663 O   0  0  0  0  0  0  0  0  0  0  0  0
    2.3598   -1.7980   -1.1817 C   0  0  0  0  0  0  0  0  0  0  0  0
    1.2579   -1.1473   -0.6277 C   0  0  0  0  0  0  0  0  0  0  0  0
    0.3717   -0.4590   -1.4581 C   0  0  0  0  0  0  0  0  0  0  0  0
    0.6504   -0.4891   -2.8233 C   0  0  0  0  0  0  0  0  0  0  0  0
    1.7013   -1.1385   -3.3883 N   0  0  0  0  0  0  0  0  0  0  0  0
    2.5345   -1.8006   -2.5700 C   0  0  0  0  0  0  0  0  0  0  0  0
    3.5886   -2.5142   -3.1599 N   0  0  0  0  0  0  0  0  0  0  0  0
   -0.7791    0.2367   -0.9059 C   0  0  0  0  0  0  0  0  0  0  0  0
   -1.3629    0.1740    0.3828 C   0  0  0  0  0  0  0  0  0  0  0  0
   -2.4172    0.9800    0.5171 N   0  0  0  0  0  0  0  0  0  0  0  0
   -2.5327    1.5604   -0.6921 N   0  0  0  0  0  0  0  0  0  0  0  0
   -1.5710    1.1485   -1.5757 C   0  0  0  0  0  0  0  0  0  0  0  0
   -3.6159    2.5118   -0.9235 C   0  0  0  0  0  0  0  0  0  0  0  0
   -3.1122    3.9083   -1.3253 C   0  0  0  0  0  0  0  0  0  0  0  0
   -3.2622    4.1607   -2.8214 C   0  0  0  0  0  0  0  0  0  0  0  0
   -4.6218    3.9687   -3.3235 N   0  0  0  0  0  0  0  0  0  0  0  0
   -5.4598    3.0814   -2.5210 C   0  0  0  0  0  0  0  0  0  0  0  0
   -4.6585    1.9485   -1.8970 C   0  0  0  0  0  0  0  0  0  0  0  0
    5.8071   -2.8768   -0.6865 H   0  0  0  0  0  0  0  0  0  0  0  0
    6.3650   -1.8788    0.6741 H   0  0  0  0  0  0  0  0  0  0  0  0
    5.4027   -3.3424    0.9531 H   0  0  0  0  0  0  0  0  0  0  0  0
    4.4655   -0.8642   -0.5574 H   0  0  0  0  0  0  0  0  0  0  0  0
    3.9624    1.9792    3.1854 H   0  0  0  0  0  0  0  0  0  0  0  0
    2.8815    0.6147    4.9547 H   0  0  0  0  0  0  0  0  0  0  0  0
    1.0995   -1.1926    0.4444 H   0  0  0  0  0  0  0  0  0  0  0  0
    0.0134    0.0092   -3.5488 H   0  0  0  0  0  0  0  0  0  0  0  0
    3.5063   -3.4854   -2.8666 H   0  0  0  0  0  0  0  0  0  0  0  0
    4.4700   -2.1708   -2.7951 H   0  0  0  0  0  0  0  0  0  0  0  0
   -1.0674   -0.4283    1.2329 H   0  0  0  0  0  0  0  0  0  0  0  0
   -1.5426    1.5340   -2.5844 H   0  0  0  0  0  0  0  0  0  0  0  0
   -4.1062    2.6319    0.0538 H   0  0  0  0  0  0  0  0  0  0  0  0
   -3.7043    4.6635   -0.7874 H   0  0  0  0  0  0  0  0  0  0  0  0
   -2.0691    4.0652   -1.0207 H   0  0  0  0  0  0  0  0  0  0  0  0
   -2.5904    3.4994   -3.3803 H   0  0  0  0  0  0  0  0  0  0  0  0
   -2.9404    5.1825   -3.0514 H   0  0  0  0  0  0  0  0  0  0  0  0
   -5.0927    4.8674   -3.4366 H   0  0  0  0  0  0  0  0  0  0  0  0
   -5.9581    3.6601   -1.7329 H   0  0  0  0  0  0  0  0  0  0  0  0
   -6.2490    2.6696   -3.1595 H   0  0  0  0  0  0  0  0  0  0  0  0
   -5.3295    1.2654   -1.3615 H   0  0  0  0  0  0  0  0  0  0  0  0
   -4.1899    1.3520   -2.6909 H   0  0  0  0  0  0  0  0  0  0  0  0
  1  2  1  0
  2  3  1  0
  3  4  2  0
  4  5  1  0
  5  6  2  0
  6  7  1  0
  7  8  2  0
  8  9  1  0
  7 10  1  0
  4 11  1  0
  2 12  1  0
 12 13  1  0
 13 14  2  0
 14 15  1  0
 15 16  2  0
 16 17  1  0
 17 18  2  0
 18 19  1  0
 15 20  1  0
 20 21  1  0
 21 22  2  0
 22 23  1  0
 23 24  1  0
 23 25  1  0
 25 26  1  0
 26 27  1  0
 27 28  1  0
 28 29  1  0
 29 30  1  0
  8  3  1  0
 18 13  1  0
 24 20  2  0
 30 25  1  0
  1 31  1  0
  1 32  1  0
  1 33  1  0
  2 34  1  6
  5 35  1  0
  6 36  1  0
 14 37  1  0
 16 38  1  0
 19 39  1  0
 19 40  1  0
 21 41  1  0
 24 42  1  0
 25 43  1  0
 26 44  1  0
 26 45  1  0
 27 46  1  0
 27 47  1  0
 28 48  1  0
 29 49  1  0
 29 50  1  0
 30 51  1  0
 30 52  1  0
M  END
>  <energy_abs>  (96) 
40.07329851130409

>  <SMILES>  (96) 
C[C@H](c1c(ccc(c1Cl)F)Cl)Oc2cc(cnc2N)c3cnn(c3)C4CCNCC4

>  <cluster_no>  (96) 
96

>  <fda_drugs_id>  (96) 
KTEIFNKAUNYNJU-GFCCVEGCSA-N

>  <initial_conformation_id>  (96) 
209

>  <minimize_method>  (96) 
MMFF

$$$$

     RDKit          3D

 52 55  0  0  0  0  0  0  0  0999 V2000
    1.7183   -2.5006    0.9729 C   0  0  0  0  0  0  0  0  0  0  0  0
    3.0986   -1.8779    0.7180 C   0  0  2  0  0  0  0  0  0  0  0  0
    4.0690   -2.2207    1.8455 C   0  0  0  0  0  0  0  0  0  0  0  0
    5.0906   -3.1825    1.6527 C   0  0  0  0  0  0  0  0  0  0  0  0
    6.0074   -3.4956    2.6701 C   0  0  0  0  0  0  0  0  0  0  0  0
    5.9320   -2.8645    3.9022 C   0  0  0  0  0  0  0  0  0  0  0  0
    4.9258   -1.9320    4.1232 C   0  0  0  0  0  0  0  0  0  0  0  0
    3.9917   -1.6114    3.1234 C   0  0  0  0  0  0  0  0  0  0  0  0
    2.7535   -0.4738    3.5517 Cl  0  0  0  0  0  0  0  0  0  0  0  0
    4.8671   -1.3312    5.3232 F   0  0  0  0  0  0  0  0  0  0  0  0
    5.2640   -4.0762    0.1788 Cl  0  0  0  0  0  0  0  0  0  0  0  0
    3.0894   -0.4455    0.5862 O   0  0  0  0  0  0  0  0  0  0  0  0
    2.3684    0.0181   -0.4802 C   0  0  0  0  0  0  0  0  0  0  0  0
    1.0881    0.5141   -0.2276 C   0  0  0  0  0  0  0  0  0  0  0  0
    0.3324    1.0481   -1.2699 C   0  0  0  0  0  0  0  0  0  0  0  0
    0.9352    1.0655   -2.5242 C   0  0  0  0  0  0  0  0  0  0  0  0
    2.1928    0.6230   -2.7889 N   0  0  0  0  0  0  0  0  0  0  0  0
    2.9094    0.1285   -1.7655 C   0  0  0  0  0  0  0  0  0  0  0  0
    4.2255   -0.2579   -2.0425 N   0  0  0  0  0  0  0  0  0  0  0  0
   -1.0039    1.5653   -1.0352 C   0  0  0  0  0  0  0  0  0  0  0  0
   -1.6575    1.9133    0.1686 C   0  0  0  0  0  0  0  0  0  0  0  0
   -2.9081    2.3436   -0.0215 N   0  0  0  0  0  0  0  0  0  0  0  0
   -3.0635    2.2935   -1.3585 N   0  0  0  0  0  0  0  0  0  0  0  0
   -1.9573    1.8096   -2.0047 C   0  0  0  0  0  0  0  0  0  0  0  0
   -4.3573    2.6667   -1.9319 C   0  0  0  0  0  0  0  0  0  0  0  0
   -4.2472    3.4714   -3.2390 C   0  0  0  0  0  0  0  0  0  0  0  0
   -4.6635    2.6344   -4.4444 C   0  0  0  0  0  0  0  0  0  0  0  0
   -6.0385    2.1565   -4.3281 N   0  0  0  0  0  0  0  0  0  0  0  0
   -6.4303    1.7261   -2.9870 C   0  0  0  0  0  0  0  0  0  0  0  0
   -5.2475    1.4246   -2.0786 C   0  0  0  0  0  0  0  0  0  0  0  0
    1.0853   -2.4097    0.0841 H   0  0  0  0  0  0  0  0  0  0  0  0
    1.7996   -3.5665    1.2070 H   0  0  0  0  0  0  0  0  0  0  0  0
    1.1782   -2.0096    1.7879 H   0  0  0  0  0  0  0  0  0  0  0  0
    3.4692   -2.2839   -0.2272 H   0  0  0  0  0  0  0  0  0  0  0  0
    6.7868   -4.2403    2.5028 H   0  0  0  0  0  0  0  0  0  0  0  0
    6.6341   -3.0922    4.6977 H   0  0  0  0  0  0  0  0  0  0  0  0
    0.7030    0.4723    0.7870 H   0  0  0  0  0  0  0  0  0  0  0  0
    0.4271    1.4686   -3.3966 H   0  0  0  0  0  0  0  0  0  0  0  0
    4.8425    0.2240   -1.3976 H   0  0  0  0  0  0  0  0  0  0  0  0
    4.3422   -1.2540   -1.8912 H   0  0  0  0  0  0  0  0  0  0  0  0
   -1.2765    1.8729    1.1810 H   0  0  0  0  0  0  0  0  0  0  0  0
   -1.9481    1.6819   -3.0781 H   0  0  0  0  0  0  0  0  0  0  0  0
   -4.8158    3.3385   -1.1905 H   0  0  0  0  0  0  0  0  0  0  0  0
   -3.2381    3.8745   -3.3897 H   0  0  0  0  0  0  0  0  0  0  0  0
   -4.9138    4.3438   -3.1741 H   0  0  0  0  0  0  0  0  0  0  0  0
   -3.9781    1.7811   -4.5677 H   0  0  0  0  0  0  0  0  0  0  0  0
   -4.5790    3.2409   -5.3559 H   0  0  0  0  0  0  0  0  0  0  0  0
   -6.2026    1.4045   -4.9973 H   0  0  0  0  0  0  0  0  0  0  0  0
   -7.0460    2.5123   -2.5380 H   0  0  0  0  0  0  0  0  0  0  0  0
   -7.0683    0.8373   -3.0684 H   0  0  0  0  0  0  0  0  0  0  0  0
   -5.6050    1.0981   -1.0950 H   0  0  0  0  0  0  0  0  0  0  0  0
   -4.6773    0.5806   -2.4898 H   0  0  0  0  0  0  0  0  0  0  0  0
  1  2  1  0
  2  3  1  0
  3  4  2  0
  4  5  1  0
  5  6  2  0
  6  7  1  0
  7  8  2  0
  8  9  1  0
  7 10  1  0
  4 11  1  0
  2 12  1  0
 12 13  1  0
 13 14  2  0
 14 15  1  0
 15 16  2  0
 16 17  1  0
 17 18  2  0
 18 19  1  0
 15 20  1  0
 20 21  1  0
 21 22  2  0
 22 23  1  0
 23 24  1  0
 23 25  1  0
 25 26  1  0
 26 27  1  0
 27 28  1  0
 28 29  1  0
 29 30  1  0
  8  3  1  0
 18 13  1  0
 24 20  2  0
 30 25  1  0
  1 31  1  0
  1 32  1  0
  1 33  1  0
  2 34  1  6
  5 35  1  0
  6 36  1  0
 14 37  1  0
 16 38  1  0
 19 39  1  0
 19 40  1  0
 21 41  1  0
 24 42  1  0
 25 43  1  0
 26 44  1  0
 26 45  1  0
 27 46  1  0
 27 47  1  0
 28 48  1  0
 29 49  1  0
 29 50  1  0
 30 51  1  0
 30 52  1  0
M  END
>  <energy_abs>  (97) 
42.505303279093745

>  <SMILES>  (97) 
C[C@H](c1c(ccc(c1Cl)F)Cl)Oc2cc(cnc2N)c3cnn(c3)C4CCNCC4

>  <cluster_no>  (97) 
97

>  <fda_drugs_id>  (97) 
KTEIFNKAUNYNJU-GFCCVEGCSA-N

>  <initial_conformation_id>  (97) 
208

>  <minimize_method>  (97) 
MMFF

$$$$

     RDKit          3D

 52 55  0  0  0  0  0  0  0  0999 V2000
    1.1931   -1.9290    2.1638 C   0  0  0  0  0  0  0  0  0  0  0  0
    2.4901   -1.5272    1.4551 C   0  0  2  0  0  0  0  0  0  0  0  0
    3.7186   -1.8715    2.2930 C   0  0  0  0  0  0  0  0  0  0  0  0
    4.0728   -1.1503    3.4585 C   0  0  0  0  0  0  0  0  0  0  0  0
    5.2065   -1.4911    4.2137 C   0  0  0  0  0  0  0  0  0  0  0  0
    6.0132   -2.5561    3.8334 C   0  0  0  0  0  0  0  0  0  0  0  0
    5.6802   -3.2832    2.7011 C   0  0  0  0  0  0  0  0  0  0  0  0
    4.5518   -2.9578    1.9354 C   0  0  0  0  0  0  0  0  0  0  0  0
    4.2375   -3.9503    0.5486 Cl  0  0  0  0  0  0  0  0  0  0  0  0
    6.4669   -4.3138    2.3562 F   0  0  0  0  0  0  0  0  0  0  0  0
    3.1571    0.1896    4.0621 Cl  0  0  0  0  0  0  0  0  0  0  0  0
    2.4880   -0.1142    1.1734 O   0  0  0  0  0  0  0  0  0  0  0  0
    2.1671    0.1593   -0.1306 C   0  0  0  0  0  0  0  0  0  0  0  0
    0.8614    0.5475   -0.4241 C   0  0  0  0  0  0  0  0  0  0  0  0
    0.5191    0.8549   -1.7406 C   0  0  0  0  0  0  0  0  0  0  0  0
    1.5307    0.7618   -2.6930 C   0  0  0  0  0  0  0  0  0  0  0  0
    2.8145    0.4137   -2.4240 N   0  0  0  0  0  0  0  0  0  0  0  0
    3.1315    0.1458   -1.1469 C   0  0  0  0  0  0  0  0  0  0  0  0
    4.4601   -0.2129   -0.8789 N   0  0  0  0  0  0  0  0  0  0  0  0
   -0.8260    1.2440   -2.1128 C   0  0  0  0  0  0  0  0  0  0  0  0
   -1.5457    1.0509   -3.3130 C   0  0  0  0  0  0  0  0  0  0  0  0
   -2.7727    1.5741   -3.2679 N   0  0  0  0  0  0  0  0  0  0  0  0
   -2.8473    2.1216   -2.0427 N   0  0  0  0  0  0  0  0  0  0  0  0
   -1.7037    1.9421   -1.3092 C   0  0  0  0  0  0  0  0  0  0  0  0
   -4.0518    2.8173   -1.5945 C   0  0  0  0  0  0  0  0  0  0  0  0
   -4.5795    3.8485   -2.6034 C   0  0  0  0  0  0  0  0  0  0  0  0
   -5.4761    3.2333   -3.6765 C   0  0  0  0  0  0  0  0  0  0  0  0
   -6.5454    2.4235   -3.0910 N   0  0  0  0  0  0  0  0  0  0  0  0
   -5.9815    1.3221   -2.3117 C   0  0  0  0  0  0  0  0  0  0  0  0
   -5.1456    1.8402   -1.1451 C   0  0  0  0  0  0  0  0  0  0  0  0
    0.9972   -1.3243    3.0541 H   0  0  0  0  0  0  0  0  0  0  0  0
    1.2114   -2.9835    2.4586 H   0  0  0  0  0  0  0  0  0  0  0  0
    0.3351   -1.7772    1.4998 H   0  0  0  0  0  0  0  0  0  0  0  0
    2.5091   -2.0798    0.5107 H   0  0  0  0  0  0  0  0  0  0  0  0
    5.4637   -0.9228    5.1066 H   0  0  0  0  0  0  0  0  0  0  0  0
    6.8917   -2.8269    4.4121 H   0  0  0  0  0  0  0  0  0  0  0  0
    0.1267    0.5939    0.3737 H   0  0  0  0  0  0  0  0  0  0  0  0
    1.3482    0.9848   -3.7410 H   0  0  0  0  0  0  0  0  0  0  0  0
    4.5052   -1.2012   -0.6547 H   0  0  0  0  0  0  0  0  0  0  0  0
    4.7792    0.3130   -0.0697 H   0  0  0  0  0  0  0  0  0  0  0  0
   -1.2322    0.5441   -4.2170 H   0  0  0  0  0  0  0  0  0  0  0  0
   -1.6139    2.3336   -0.3054 H   0  0  0  0  0  0  0  0  0  0  0  0
   -3.7261    3.3779   -0.7068 H   0  0  0  0  0  0  0  0  0  0  0  0
   -5.1679    4.5960   -2.0538 H   0  0  0  0  0  0  0  0  0  0  0  0
   -3.7528    4.3907   -3.0779 H   0  0  0  0  0  0  0  0  0  0  0  0
   -4.8983    2.6346   -4.3885 H   0  0  0  0  0  0  0  0  0  0  0  0
   -5.9327    4.0384   -4.2633 H   0  0  0  0  0  0  0  0  0  0  0  0
   -7.1342    3.0055   -2.4966 H   0  0  0  0  0  0  0  0  0  0  0  0
   -6.8056    0.7149   -1.9202 H   0  0  0  0  0  0  0  0  0  0  0  0
   -5.3944    0.6593   -2.9575 H   0  0  0  0  0  0  0  0  0  0  0  0
   -4.7148    0.9945   -0.5956 H   0  0  0  0  0  0  0  0  0  0  0  0
   -5.8115    2.3616   -0.4440 H   0  0  0  0  0  0  0  0  0  0  0  0
  1  2  1  0
  2  3  1  0
  3  4  2  0
  4  5  1  0
  5  6  2  0
  6  7  1  0
  7  8  2  0
  8  9  1  0
  7 10  1  0
  4 11  1  0
  2 12  1  0
 12 13  1  0
 13 14  2  0
 14 15  1  0
 15 16  2  0
 16 17  1  0
 17 18  2  0
 18 19  1  0
 15 20  1  0
 20 21  1  0
 21 22  2  0
 22 23  1  0
 23 24  1  0
 23 25  1  0
 25 26  1  0
 26 27  1  0
 27 28  1  0
 28 29  1  0
 29 30  1  0
  8  3  1  0
 18 13  1  0
 24 20  2  0
 30 25  1  0
  1 31  1  0
  1 32  1  0
  1 33  1  0
  2 34  1  6
  5 35  1  0
  6 36  1  0
 14 37  1  0
 16 38  1  0
 19 39  1  0
 19 40  1  0
 21 41  1  0
 24 42  1  0
 25 43  1  0
 26 44  1  0
 26 45  1  0
 27 46  1  0
 27 47  1  0
 28 48  1  0
 29 49  1  0
 29 50  1  0
 30 51  1  0
 30 52  1  0
M  END
>  <energy_abs>  (98) 
35.82529274288372

>  <SMILES>  (98) 
C[C@H](c1c(ccc(c1Cl)F)Cl)Oc2cc(cnc2N)c3cnn(c3)C4CCNCC4

>  <cluster_no>  (98) 
98

>  <fda_drugs_id>  (98) 
KTEIFNKAUNYNJU-GFCCVEGCSA-N

>  <initial_conformation_id>  (98) 
207

>  <minimize_method>  (98) 
MMFF

$$$$

     RDKit          3D

 52 55  0  0  0  0  0  0  0  0999 V2000
    2.9824   -2.4080   -0.4149 C   0  0  0  0  0  0  0  0  0  0  0  0
    3.7378   -1.4117    0.4801 C   0  0  2  0  0  0  0  0  0  0  0  0
    3.9958   -1.9903    1.8709 C   0  0  0  0  0  0  0  0  0  0  0  0
    5.3058   -2.3225    2.2884 C   0  0  0  0  0  0  0  0  0  0  0  0
    5.5597   -2.8341    3.5706 C   0  0  0  0  0  0  0  0  0  0  0  0
    4.5141   -3.0463    4.4637 C   0  0  0  0  0  0  0  0  0  0  0  0
    3.2186   -2.7360    4.0735 C   0  0  0  0  0  0  0  0  0  0  0  0
    2.9487   -2.2092    2.8020 C   0  0  0  0  0  0  0  0  0  0  0  0
    1.2861   -1.8327    2.4627 Cl  0  0  0  0  0  0  0  0  0  0  0  0
    2.2237   -2.9410    4.9521 F   0  0  0  0  0  0  0  0  0  0  0  0
    6.6914   -2.1366    1.2637 Cl  0  0  0  0  0  0  0  0  0  0  0  0
    3.0822   -0.1432    0.6678 O   0  0  0  0  0  0  0  0  0  0  0  0
    2.7291    0.5108   -0.4822 C   0  0  0  0  0  0  0  0  0  0  0  0
    1.3574    0.6217   -0.7360 C   0  0  0  0  0  0  0  0  0  0  0  0
    0.9056    1.3224   -1.8538 C   0  0  0  0  0  0  0  0  0  0  0  0
    1.8904    1.8766   -2.6679 C   0  0  0  0  0  0  0  0  0  0  0  0
    3.2273    1.8041   -2.4320 N   0  0  0  0  0  0  0  0  0  0  0  0
    3.6353    1.1673   -1.3217 C   0  0  0  0  0  0  0  0  0  0  0  0
    5.0151    1.1402   -1.0966 N   0  0  0  0  0  0  0  0  0  0  0  0
   -0.5088    1.4854   -2.1564 C   0  0  0  0  0  0  0  0  0  0  0  0
   -1.1572    2.0617   -3.2771 C   0  0  0  0  0  0  0  0  0  0  0  0
   -2.4881    2.0466   -3.1756 N   0  0  0  0  0  0  0  0  0  0  0  0
   -2.7095    1.4638   -1.9832 N   0  0  0  0  0  0  0  0  0  0  0  0
   -1.5551    1.1051   -1.3390 C   0  0  0  0  0  0  0  0  0  0  0  0
   -4.0726    1.2699   -1.4932 C   0  0  0  0  0  0  0  0  0  0  0  0
   -4.9546    0.5099   -2.4986 C   0  0  0  0  0  0  0  0  0  0  0  0
   -5.8843    1.4619   -3.2431 C   0  0  0  0  0  0  0  0  0  0  0  0
   -6.7789    2.1944   -2.3485 N   0  0  0  0  0  0  0  0  0  0  0  0
   -6.2168    2.4992   -1.0334 C   0  0  0  0  0  0  0  0  0  0  0  0
   -4.6959    2.6031   -1.0537 C   0  0  0  0  0  0  0  0  0  0  0  0
    3.4597   -3.3949   -0.3961 H   0  0  0  0  0  0  0  0  0  0  0  0
    1.9325   -2.5267   -0.1315 H   0  0  0  0  0  0  0  0  0  0  0  0
    2.9784   -2.0658   -1.4576 H   0  0  0  0  0  0  0  0  0  0  0  0
    4.6915   -1.2132   -0.0105 H   0  0  0  0  0  0  0  0  0  0  0  0
    6.5799   -3.0690    3.8800 H   0  0  0  0  0  0  0  0  0  0  0  0
    4.6990   -3.4447    5.4575 H   0  0  0  0  0  0  0  0  0  0  0  0
    0.6637    0.1567   -0.0431 H   0  0  0  0  0  0  0  0  0  0  0  0
    1.6435    2.4341   -3.5672 H   0  0  0  0  0  0  0  0  0  0  0  0
    5.3983    0.2415   -1.3621 H   0  0  0  0  0  0  0  0  0  0  0  0
    5.2033    1.3125   -0.1127 H   0  0  0  0  0  0  0  0  0  0  0  0
   -0.7193    2.4955   -4.1662 H   0  0  0  0  0  0  0  0  0  0  0  0
   -1.5847    0.6373   -0.3660 H   0  0  0  0  0  0  0  0  0  0  0  0
   -3.9728    0.6274   -0.6076 H   0  0  0  0  0  0  0  0  0  0  0  0
   -5.5663   -0.2243   -1.9528 H   0  0  0  0  0  0  0  0  0  0  0  0
   -4.3516   -0.0647   -3.2145 H   0  0  0  0  0  0  0  0  0  0  0  0
   -6.4848    0.9021   -3.9685 H   0  0  0  0  0  0  0  0  0  0  0  0
   -5.2960    2.1823   -3.8254 H   0  0  0  0  0  0  0  0  0  0  0  0
   -7.6761    1.7231   -2.2571 H   0  0  0  0  0  0  0  0  0  0  0  0
   -6.5191    1.7273   -0.3132 H   0  0  0  0  0  0  0  0  0  0  0  0
   -6.6448    3.4454   -0.6827 H   0  0  0  0  0  0  0  0  0  0  0  0
   -4.3988    3.4190   -1.7285 H   0  0  0  0  0  0  0  0  0  0  0  0
   -4.3197    2.8795   -0.0590 H   0  0  0  0  0  0  0  0  0  0  0  0
  1  2  1  0
  2  3  1  0
  3  4  2  0
  4  5  1  0
  5  6  2  0
  6  7  1  0
  7  8  2  0
  8  9  1  0
  7 10  1  0
  4 11  1  0
  2 12  1  0
 12 13  1  0
 13 14  2  0
 14 15  1  0
 15 16  2  0
 16 17  1  0
 17 18  2  0
 18 19  1  0
 15 20  1  0
 20 21  1  0
 21 22  2  0
 22 23  1  0
 23 24  1  0
 23 25  1  0
 25 26  1  0
 26 27  1  0
 27 28  1  0
 28 29  1  0
 29 30  1  0
  8  3  1  0
 18 13  1  0
 24 20  2  0
 30 25  1  0
  1 31  1  0
  1 32  1  0
  1 33  1  0
  2 34  1  6
  5 35  1  0
  6 36  1  0
 14 37  1  0
 16 38  1  0
 19 39  1  0
 19 40  1  0
 21 41  1  0
 24 42  1  0
 25 43  1  0
 26 44  1  0
 26 45  1  0
 27 46  1  0
 27 47  1  0
 28 48  1  0
 29 49  1  0
 29 50  1  0
 30 51  1  0
 30 52  1  0
M  END
>  <energy_abs>  (99) 
43.044557959820615

>  <SMILES>  (99) 
C[C@H](c1c(ccc(c1Cl)F)Cl)Oc2cc(cnc2N)c3cnn(c3)C4CCNCC4

>  <cluster_no>  (99) 
99

>  <fda_drugs_id>  (99) 
KTEIFNKAUNYNJU-GFCCVEGCSA-N

>  <initial_conformation_id>  (99) 
206

>  <minimize_method>  (99) 
MMFF

$$$$

     RDKit          3D

 52 55  0  0  0  0  0  0  0  0999 V2000
    1.6445   -1.4797    3.6143 C   0  0  0  0  0  0  0  0  0  0  0  0
    2.2828   -1.2554    2.2409 C   0  0  2  0  0  0  0  0  0  0  0  0
    3.6159   -1.9864    2.1244 C   0  0  0  0  0  0  0  0  0  0  0  0
    3.7092   -3.1852    1.3792 C   0  0  0  0  0  0  0  0  0  0  0  0
    4.9252   -3.8687    1.2361 C   0  0  0  0  0  0  0  0  0  0  0  0
    6.0786   -3.3790    1.8350 C   0  0  0  0  0  0  0  0  0  0  0  0
    6.0080   -2.2142    2.5847 C   0  0  0  0  0  0  0  0  0  0  0  0
    4.7996   -1.5215    2.7428 C   0  0  0  0  0  0  0  0  0  0  0  0
    4.8534   -0.0903    3.7196 Cl  0  0  0  0  0  0  0  0  0  0  0  0
    7.1345   -1.7609    3.1552 F   0  0  0  0  0  0  0  0  0  0  0  0
    2.3399   -3.9171    0.6093 Cl  0  0  0  0  0  0  0  0  0  0  0  0
    2.4187    0.1658    2.0378 O   0  0  0  0  0  0  0  0  0  0  0  0
    2.1012    0.5284    0.7544 C   0  0  0  0  0  0  0  0  0  0  0  0
    0.7676    0.7731    0.4262 C   0  0  0  0  0  0  0  0  0  0  0  0
    0.4407    1.1714   -0.8705 C   0  0  0  0  0  0  0  0  0  0  0  0
    1.5005    1.3200   -1.7647 C   0  0  0  0  0  0  0  0  0  0  0  0
    2.8088    1.1093   -1.4636 N   0  0  0  0  0  0  0  0  0  0  0  0
    3.0940    0.7338   -0.2058 C   0  0  0  0  0  0  0  0  0  0  0  0
    4.4416    0.5115    0.0773 N   0  0  0  0  0  0  0  0  0  0  0  0
   -0.9381    1.4230   -1.2507 C   0  0  0  0  0  0  0  0  0  0  0  0
   -2.0791    1.6980   -0.4598 C   0  0  0  0  0  0  0  0  0  0  0  0
   -3.1884    1.8593   -1.1845 N   0  0  0  0  0  0  0  0  0  0  0  0
   -2.7669    1.6923   -2.4521 N   0  0  0  0  0  0  0  0  0  0  0  0
   -1.4274    1.4247   -2.5416 C   0  0  0  0  0  0  0  0  0  0  0  0
   -3.7086    1.7959   -3.5646 C   0  0  0  0  0  0  0  0  0  0  0  0
   -4.6469    0.5806   -3.5975 C   0  0  0  0  0  0  0  0  0  0  0  0
   -5.9036    0.8911   -4.3991 C   0  0  0  0  0  0  0  0  0  0  0  0
   -6.6608    2.0350   -3.8928 N   0  0  0  0  0  0  0  0  0  0  0  0
   -5.8910    2.9463   -3.0432 C   0  0  0  0  0  0  0  0  0  0  0  0
   -4.4690    3.1315   -3.5583 C   0  0  0  0  0  0  0  0  0  0  0  0
    1.4989   -2.5458    3.8181 H   0  0  0  0  0  0  0  0  0  0  0  0
    0.6693   -0.9816    3.6609 H   0  0  0  0  0  0  0  0  0  0  0  0
    2.2431   -1.0548    4.4255 H   0  0  0  0  0  0  0  0  0  0  0  0
    1.5625   -1.6438    1.5131 H   0  0  0  0  0  0  0  0  0  0  0  0
    4.9760   -4.7859    0.6534 H   0  0  0  0  0  0  0  0  0  0  0  0
    7.0278   -3.8929    1.7255 H   0  0  0  0  0  0  0  0  0  0  0  0
    0.0040    0.6397    1.1865 H   0  0  0  0  0  0  0  0  0  0  0  0
    1.3378    1.6369   -2.7913 H   0  0  0  0  0  0  0  0  0  0  0  0
    4.9758    0.8211   -0.7296 H   0  0  0  0  0  0  0  0  0  0  0  0
    4.7052    0.9927    0.9319 H   0  0  0  0  0  0  0  0  0  0  0  0
   -2.1493    1.7920    0.6162 H   0  0  0  0  0  0  0  0  0  0  0  0
   -0.9580    1.2542   -3.5006 H   0  0  0  0  0  0  0  0  0  0  0  0
   -3.0899    1.7811   -4.4726 H   0  0  0  0  0  0  0  0  0  0  0  0
   -4.1231   -0.2770   -4.0382 H   0  0  0  0  0  0  0  0  0  0  0  0
   -4.9343    0.2703   -2.5834 H   0  0  0  0  0  0  0  0  0  0  0  0
   -5.6272    1.0961   -5.4410 H   0  0  0  0  0  0  0  0  0  0  0  0
   -6.5545    0.0094   -4.4224 H   0  0  0  0  0  0  0  0  0  0  0  0
   -7.4785    1.7140   -3.3727 H   0  0  0  0  0  0  0  0  0  0  0  0
   -6.4028    3.9149   -3.0213 H   0  0  0  0  0  0  0  0  0  0  0  0
   -5.8784    2.5716   -2.0127 H   0  0  0  0  0  0  0  0  0  0  0  0
   -3.9485    3.8944   -2.9675 H   0  0  0  0  0  0  0  0  0  0  0  0
   -4.5146    3.5210   -4.5848 H   0  0  0  0  0  0  0  0  0  0  0  0
  1  2  1  0
  2  3  1  0
  3  4  2  0
  4  5  1  0
  5  6  2  0
  6  7  1  0
  7  8  2  0
  8  9  1  0
  7 10  1  0
  4 11  1  0
  2 12  1  0
 12 13  1  0
 13 14  2  0
 14 15  1  0
 15 16  2  0
 16 17  1  0
 17 18  2  0
 18 19  1  0
 15 20  1  0
 20 21  1  0
 21 22  2  0
 22 23  1  0
 23 24  1  0
 23 25  1  0
 25 26  1  0
 26 27  1  0
 27 28  1  0
 28 29  1  0
 29 30  1  0
  8  3  1  0
 18 13  1  0
 24 20  2  0
 30 25  1  0
  1 31  1  0
  1 32  1  0
  1 33  1  0
  2 34  1  6
  5 35  1  0
  6 36  1  0
 14 37  1  0
 16 38  1  0
 19 39  1  0
 19 40  1  0
 21 41  1  0
 24 42  1  0
 25 43  1  0
 26 44  1  0
 26 45  1  0
 27 46  1  0
 27 47  1  0
 28 48  1  0
 29 49  1  0
 29 50  1  0
 30 51  1  0
 30 52  1  0
M  END
>  <energy_abs>  (100) 
27.232954022481138

>  <SMILES>  (100) 
C[C@H](c1c(ccc(c1Cl)F)Cl)Oc2cc(cnc2N)c3cnn(c3)C4CCNCC4

>  <cluster_no>  (100) 
100

>  <fda_drugs_id>  (100) 
KTEIFNKAUNYNJU-GFCCVEGCSA-N

>  <initial_conformation_id>  (100) 
205

>  <minimize_method>  (100) 
MMFF

$$$$

     RDKit          3D

 52 55  0  0  0  0  0  0  0  0999 V2000
    5.0131    0.0275    3.2160 C   0  0  0  0  0  0  0  0  0  0  0  0
    3.7140   -0.0964    2.4153 C   0  0  2  0  0  0  0  0  0  0  0  0
    3.5324   -1.5054    1.8599 C   0  0  0  0  0  0  0  0  0  0  0  0
    2.6074   -2.3931    2.4579 C   0  0  0  0  0  0  0  0  0  0  0  0
    2.3943   -3.6819    1.9484 C   0  0  0  0  0  0  0  0  0  0  0  0
    3.1050   -4.1241    0.8395 C   0  0  0  0  0  0  0  0  0  0  0  0
    4.0348   -3.2796    0.2510 C   0  0  0  0  0  0  0  0  0  0  0  0
    4.2608   -1.9879    0.7474 C   0  0  0  0  0  0  0  0  0  0  0  0
    5.4593   -1.0433   -0.0724 Cl  0  0  0  0  0  0  0  0  0  0  0  0
    4.7164   -3.7321   -0.8130 F   0  0  0  0  0  0  0  0  0  0  0  0
    1.6782   -1.9714    3.8582 Cl  0  0  0  0  0  0  0  0  0  0  0  0
    3.7310    0.9105    1.3801 O   0  0  0  0  0  0  0  0  0  0  0  0
    2.4728    1.3954    1.1235 C   0  0  0  0  0  0  0  0  0  0  0  0
    1.6695    0.7569    0.1801 C   0  0  0  0  0  0  0  0  0  0  0  0
    0.3958    1.2567   -0.0905 C   0  0  0  0  0  0  0  0  0  0  0  0
    0.0134    2.3993    0.6089 C   0  0  0  0  0  0  0  0  0  0  0  0
    0.7924    3.0586    1.5050 N   0  0  0  0  0  0  0  0  0  0  0  0
    2.0189    2.5673    1.7391 C   0  0  0  0  0  0  0  0  0  0  0  0
    2.8305    3.2605    2.6509 N   0  0  0  0  0  0  0  0  0  0  0  0
   -0.4740    0.6016   -1.0518 C   0  0  0  0  0  0  0  0  0  0  0  0
   -0.4284   -0.7018   -1.6012 C   0  0  0  0  0  0  0  0  0  0  0  0
   -1.4108   -0.9339   -2.4746 N   0  0  0  0  0  0  0  0  0  0  0  0
   -2.0974    0.2248   -2.4989 N   0  0  0  0  0  0  0  0  0  0  0  0
   -1.5733    1.1726   -1.6612 C   0  0  0  0  0  0  0  0  0  0  0  0
   -3.2465    0.3560   -3.3909 C   0  0  0  0  0  0  0  0  0  0  0  0
   -3.0024    1.3812   -4.5105 C   0  0  0  0  0  0  0  0  0  0  0  0
   -3.6847    2.7122   -4.2190 C   0  0  0  0  0  0  0  0  0  0  0  0
   -5.1205    2.5998   -3.9737 N   0  0  0  0  0  0  0  0  0  0  0  0
   -5.5716    1.2873   -3.5183 C   0  0  0  0  0  0  0  0  0  0  0  0
   -4.5456    0.6153   -2.6165 C   0  0  0  0  0  0  0  0  0  0  0  0
    5.0524   -0.6980    4.0365 H   0  0  0  0  0  0  0  0  0  0  0  0
    5.9006   -0.1138    2.5930 H   0  0  0  0  0  0  0  0  0  0  0  0
    5.0969    1.0351    3.6402 H   0  0  0  0  0  0  0  0  0  0  0  0
    2.9108    0.1569    3.1155 H   0  0  0  0  0  0  0  0  0  0  0  0
    1.6709   -4.3475    2.4178 H   0  0  0  0  0  0  0  0  0  0  0  0
    2.9474   -5.1190    0.4343 H   0  0  0  0  0  0  0  0  0  0  0  0
    2.0538   -0.1098   -0.3464 H   0  0  0  0  0  0  0  0  0  0  0  0
   -0.9671    2.8481    0.4769 H   0  0  0  0  0  0  0  0  0  0  0  0
    3.7224    3.4474    2.1974 H   0  0  0  0  0  0  0  0  0  0  0  0
    3.0202    2.6633    3.4478 H   0  0  0  0  0  0  0  0  0  0  0  0
    0.2783   -1.4968   -1.4007 H   0  0  0  0  0  0  0  0  0  0  0  0
   -2.0197    2.1537   -1.5823 H   0  0  0  0  0  0  0  0  0  0  0  0
   -3.3432   -0.6229   -3.8815 H   0  0  0  0  0  0  0  0  0  0  0  0
   -3.4095    0.9822   -5.4501 H   0  0  0  0  0  0  0  0  0  0  0  0
   -1.9308    1.5382   -4.6867 H   0  0  0  0  0  0  0  0  0  0  0  0
   -3.5192    3.4008   -5.0557 H   0  0  0  0  0  0  0  0  0  0  0  0
   -3.2224    3.1833   -3.3441 H   0  0  0  0  0  0  0  0  0  0  0  0
   -5.6525    2.8803   -4.7992 H   0  0  0  0  0  0  0  0  0  0  0  0
   -6.5163    1.4099   -2.9779 H   0  0  0  0  0  0  0  0  0  0  0  0
   -5.7809    0.6467   -4.3838 H   0  0  0  0  0  0  0  0  0  0  0  0
   -4.9428   -0.3341   -2.2374 H   0  0  0  0  0  0  0  0  0  0  0  0
   -4.3733    1.2447   -1.7347 H   0  0  0  0  0  0  0  0  0  0  0  0
  1  2  1  0
  2  3  1  0
  3  4  2  0
  4  5  1  0
  5  6  2  0
  6  7  1  0
  7  8  2  0
  8  9  1  0
  7 10  1  0
  4 11  1  0
  2 12  1  0
 12 13  1  0
 13 14  2  0
 14 15  1  0
 15 16  2  0
 16 17  1  0
 17 18  2  0
 18 19  1  0
 15 20  1  0
 20 21  1  0
 21 22  2  0
 22 23  1  0
 23 24  1  0
 23 25  1  0
 25 26  1  0
 26 27  1  0
 27 28  1  0
 28 29  1  0
 29 30  1  0
  8  3  1  0
 18 13  1  0
 24 20  2  0
 30 25  1  0
  1 31  1  0
  1 32  1  0
  1 33  1  0
  2 34  1  1
  5 35  1  0
  6 36  1  0
 14 37  1  0
 16 38  1  0
 19 39  1  0
 19 40  1  0
 21 41  1  0
 24 42  1  0
 25 43  1  0
 26 44  1  0
 26 45  1  0
 27 46  1  0
 27 47  1  0
 28 48  1  0
 29 49  1  0
 29 50  1  0
 30 51  1  0
 30 52  1  0
M  END
>  <energy_abs>  (101) 
39.97073805876917

>  <SMILES>  (101) 
C[C@H](c1c(ccc(c1Cl)F)Cl)Oc2cc(cnc2N)c3cnn(c3)C4CCNCC4

>  <cluster_no>  (101) 
101

>  <fda_drugs_id>  (101) 
KTEIFNKAUNYNJU-GFCCVEGCSA-N

>  <initial_conformation_id>  (101) 
204

>  <minimize_method>  (101) 
MMFF

$$$$

     RDKit          3D

 52 55  0  0  0  0  0  0  0  0999 V2000
    2.7222   -1.2549    4.1231 C   0  0  0  0  0  0  0  0  0  0  0  0
    2.3301   -0.7386    2.7344 C   0  0  2  0  0  0  0  0  0  0  0  0
    2.6967   -1.7538    1.6550 C   0  0  0  0  0  0  0  0  0  0  0  0
    1.6981   -2.5666    1.0681 C   0  0  0  0  0  0  0  0  0  0  0  0
    2.0033   -3.4969    0.0643 C   0  0  0  0  0  0  0  0  0  0  0  0
    3.3124   -3.6512   -0.3723 C   0  0  0  0  0  0  0  0  0  0  0  0
    4.3127   -2.8833    0.2054 C   0  0  0  0  0  0  0  0  0  0  0  0
    4.0256   -1.9483    1.2102 C   0  0  0  0  0  0  0  0  0  0  0  0
    5.3772   -1.0952    1.8769 Cl  0  0  0  0  0  0  0  0  0  0  0  0
    5.5724   -3.0693   -0.2179 F   0  0  0  0  0  0  0  0  0  0  0  0
    0.0343   -2.4964    1.5472 Cl  0  0  0  0  0  0  0  0  0  0  0  0
    2.9522    0.5415    2.5516 O   0  0  0  0  0  0  0  0  0  0  0  0
    2.5343    1.3567    1.5305 C   0  0  0  0  0  0  0  0  0  0  0  0
    1.3369    1.2273    0.8254 C   0  0  0  0  0  0  0  0  0  0  0  0
    1.0175    2.1314   -0.1939 C   0  0  0  0  0  0  0  0  0  0  0  0
    1.9291    3.1525   -0.4397 C   0  0  0  0  0  0  0  0  0  0  0  0
    3.0905    3.3231    0.2347 N   0  0  0  0  0  0  0  0  0  0  0  0
    3.3746    2.4325    1.2029 C   0  0  0  0  0  0  0  0  0  0  0  0
    4.6095    2.6001    1.8281 N   0  0  0  0  0  0  0  0  0  0  0  0
   -0.2111    2.0231   -0.9601 C   0  0  0  0  0  0  0  0  0  0  0  0
   -0.9395    2.9960   -1.6847 C   0  0  0  0  0  0  0  0  0  0  0  0
   -2.0244    2.4948   -2.2797 N   0  0  0  0  0  0  0  0  0  0  0  0
   -2.0007    1.1925   -1.9414 N   0  0  0  0  0  0  0  0  0  0  0  0
   -0.9316    0.8617   -1.1547 C   0  0  0  0  0  0  0  0  0  0  0  0
   -3.0378    0.2859   -2.4174 C   0  0  0  0  0  0  0  0  0  0  0  0
   -3.0114    0.1421   -3.9427 C   0  0  0  0  0  0  0  0  0  0  0  0
   -4.1274   -0.7862   -4.4089 C   0  0  0  0  0  0  0  0  0  0  0  0
   -5.4395   -0.3412   -3.9402 N   0  0  0  0  0  0  0  0  0  0  0  0
   -5.4901   -0.2489   -2.4813 C   0  0  0  0  0  0  0  0  0  0  0  0
   -4.4313    0.7021   -1.9342 C   0  0  0  0  0  0  0  0  0  0  0  0
    3.8044   -1.3648    4.2372 H   0  0  0  0  0  0  0  0  0  0  0  0
    2.4058   -0.5404    4.8916 H   0  0  0  0  0  0  0  0  0  0  0  0
    2.2550   -2.2220    4.3366 H   0  0  0  0  0  0  0  0  0  0  0  0
    1.2517   -0.5723    2.7951 H   0  0  0  0  0  0  0  0  0  0  0  0
    1.2203   -4.1104   -0.3774 H   0  0  0  0  0  0  0  0  0  0  0  0
    3.5639   -4.3691   -1.1470 H   0  0  0  0  0  0  0  0  0  0  0  0
    0.6280    0.4470    1.0662 H   0  0  0  0  0  0  0  0  0  0  0  0
    1.7624    3.8912   -1.2188 H   0  0  0  0  0  0  0  0  0  0  0  0
    5.0052    3.4837    1.5269 H   0  0  0  0  0  0  0  0  0  0  0  0
    4.5348    2.4940    2.8325 H   0  0  0  0  0  0  0  0  0  0  0  0
   -0.7289    4.0515   -1.8024 H   0  0  0  0  0  0  0  0  0  0  0  0
   -0.7777   -0.1549   -0.8211 H   0  0  0  0  0  0  0  0  0  0  0  0
   -2.8056   -0.6948   -1.9791 H   0  0  0  0  0  0  0  0  0  0  0  0
   -2.0416   -0.2537   -4.2680 H   0  0  0  0  0  0  0  0  0  0  0  0
   -3.1266    1.1220   -4.4245 H   0  0  0  0  0  0  0  0  0  0  0  0
   -4.1365   -0.8243   -5.5037 H   0  0  0  0  0  0  0  0  0  0  0  0
   -3.9398   -1.8101   -4.0635 H   0  0  0  0  0  0  0  0  0  0  0  0
   -5.6429    0.5771   -4.3402 H   0  0  0  0  0  0  0  0  0  0  0  0
   -5.3680   -1.2467   -2.0435 H   0  0  0  0  0  0  0  0  0  0  0  0
   -6.4845    0.1017   -2.1835 H   0  0  0  0  0  0  0  0  0  0  0  0
   -4.4664    0.7036   -0.8380 H   0  0  0  0  0  0  0  0  0  0  0  0
   -4.6614    1.7265   -2.2558 H   0  0  0  0  0  0  0  0  0  0  0  0
  1  2  1  0
  2  3  1  0
  3  4  2  0
  4  5  1  0
  5  6  2  0
  6  7  1  0
  7  8  2  0
  8  9  1  0
  7 10  1  0
  4 11  1  0
  2 12  1  0
 12 13  1  0
 13 14  2  0
 14 15  1  0
 15 16  2  0
 16 17  1  0
 17 18  2  0
 18 19  1  0
 15 20  1  0
 20 21  1  0
 21 22  2  0
 22 23  1  0
 23 24  1  0
 23 25  1  0
 25 26  1  0
 26 27  1  0
 27 28  1  0
 28 29  1  0
 29 30  1  0
  8  3  1  0
 18 13  1  0
 24 20  2  0
 30 25  1  0
  1 31  1  0
  1 32  1  0
  1 33  1  0
  2 34  1  1
  5 35  1  0
  6 36  1  0
 14 37  1  0
 16 38  1  0
 19 39  1  0
 19 40  1  0
 21 41  1  0
 24 42  1  0
 25 43  1  0
 26 44  1  0
 26 45  1  0
 27 46  1  0
 27 47  1  0
 28 48  1  0
 29 49  1  0
 29 50  1  0
 30 51  1  0
 30 52  1  0
M  END
>  <energy_abs>  (102) 
25.00619422680972

>  <SMILES>  (102) 
C[C@H](c1c(ccc(c1Cl)F)Cl)Oc2cc(cnc2N)c3cnn(c3)C4CCNCC4

>  <cluster_no>  (102) 
102

>  <fda_drugs_id>  (102) 
KTEIFNKAUNYNJU-GFCCVEGCSA-N

>  <initial_conformation_id>  (102) 
203

>  <minimize_method>  (102) 
MMFF

$$$$

     RDKit          3D

 52 55  0  0  0  0  0  0  0  0999 V2000
    1.8088   -1.2674    2.8198 C   0  0  0  0  0  0  0  0  0  0  0  0
    2.6297   -1.3778    1.5316 C   0  0  2  0  0  0  0  0  0  0  0  0
    3.7969   -2.3476    1.7244 C   0  0  0  0  0  0  0  0  0  0  0  0
    3.7144   -3.6720    1.2274 C   0  0  0  0  0  0  0  0  0  0  0  0
    4.7710   -4.5826    1.3799 C   0  0  0  0  0  0  0  0  0  0  0  0
    5.9317   -4.2042    2.0423 C   0  0  0  0  0  0  0  0  0  0  0  0
    6.0266   -2.9207    2.5606 C   0  0  0  0  0  0  0  0  0  0  0  0
    4.9804   -1.9960    2.4175 C   0  0  0  0  0  0  0  0  0  0  0  0
    5.2212   -0.4413    3.1505 Cl  0  0  0  0  0  0  0  0  0  0  0  0
    7.1500   -2.5857    3.2146 F   0  0  0  0  0  0  0  0  0  0  0  0
    2.3075   -4.2815    0.4202 Cl  0  0  0  0  0  0  0  0  0  0  0  0
    3.1460   -0.1041    1.1298 O   0  0  0  0  0  0  0  0  0  0  0  0
    2.3601    0.8000    0.4663 C   0  0  0  0  0  0  0  0  0  0  0  0
    1.0380    0.6075    0.0627 C   0  0  0  0  0  0  0  0  0  0  0  0
    0.3633    1.6266   -0.6195 C   0  0  0  0  0  0  0  0  0  0  0  0
    1.0636    2.8040   -0.8618 C   0  0  0  0  0  0  0  0  0  0  0  0
    2.3421    3.0254   -0.4808 N   0  0  0  0  0  0  0  0  0  0  0  0
    2.9704    2.0359    0.1760 C   0  0  0  0  0  0  0  0  0  0  0  0
    4.3014    2.2730    0.5690 N   0  0  0  0  0  0  0  0  0  0  0  0
   -1.0147    1.4577   -1.0403 C   0  0  0  0  0  0  0  0  0  0  0  0
   -2.0800    0.7381   -0.4533 C   0  0  0  0  0  0  0  0  0  0  0  0
   -3.2151    0.8356   -1.1494 N   0  0  0  0  0  0  0  0  0  0  0  0
   -2.8829    1.6166   -2.1947 N   0  0  0  0  0  0  0  0  0  0  0  0
   -1.5747    2.0202   -2.1702 C   0  0  0  0  0  0  0  0  0  0  0  0
   -3.8799    1.9723   -3.1996 C   0  0  0  0  0  0  0  0  0  0  0  0
   -4.4628    0.7303   -3.8843 C   0  0  0  0  0  0  0  0  0  0  0  0
   -5.5914    1.1256   -4.8324 C   0  0  0  0  0  0  0  0  0  0  0  0
   -6.6036    2.0120   -4.2481 N   0  0  0  0  0  0  0  0  0  0  0  0
   -6.3671    2.3355   -2.8436 C   0  0  0  0  0  0  0  0  0  0  0  0
   -4.9661    2.8972   -2.6260 C   0  0  0  0  0  0  0  0  0  0  0  0
    1.4622   -2.2493    3.1566 H   0  0  0  0  0  0  0  0  0  0  0  0
    2.3840   -0.8096    3.6305 H   0  0  0  0  0  0  0  0  0  0  0  0
    0.9302   -0.6301    2.6759 H   0  0  0  0  0  0  0  0  0  0  0  0
    1.9966   -1.7521    0.7251 H   0  0  0  0  0  0  0  0  0  0  0  0
    4.6901   -5.5934    0.9850 H   0  0  0  0  0  0  0  0  0  0  0  0
    6.7569   -4.8980    2.1669 H   0  0  0  0  0  0  0  0  0  0  0  0
    0.5186   -0.3231    0.2547 H   0  0  0  0  0  0  0  0  0  0  0  0
    0.6043    3.6456   -1.3722 H   0  0  0  0  0  0  0  0  0  0  0  0
    4.8876    1.5682    0.1298 H   0  0  0  0  0  0  0  0  0  0  0  0
    4.3630    2.0926    1.5686 H   0  0  0  0  0  0  0  0  0  0  0  0
   -2.0812    0.1550    0.4585 H   0  0  0  0  0  0  0  0  0  0  0  0
   -1.1671    2.6515   -2.9466 H   0  0  0  0  0  0  0  0  0  0  0  0
   -3.3324    2.5429   -3.9635 H   0  0  0  0  0  0  0  0  0  0  0  0
   -3.6767    0.2052   -4.4411 H   0  0  0  0  0  0  0  0  0  0  0  0
   -4.8429    0.0156   -3.1432 H   0  0  0  0  0  0  0  0  0  0  0  0
   -5.1611    1.6140   -5.7186 H   0  0  0  0  0  0  0  0  0  0  0  0
   -6.0912    0.2178   -5.1954 H   0  0  0  0  0  0  0  0  0  0  0  0
   -6.6704    2.8717   -4.8001 H   0  0  0  0  0  0  0  0  0  0  0  0
   -6.5327    1.4473   -2.2195 H   0  0  0  0  0  0  0  0  0  0  0  0
   -7.1128    3.0723   -2.5206 H   0  0  0  0  0  0  0  0  0  0  0  0
   -4.8913    3.8750   -3.1203 H   0  0  0  0  0  0  0  0  0  0  0  0
   -4.8192    3.0932   -1.5563 H   0  0  0  0  0  0  0  0  0  0  0  0
  1  2  1  0
  2  3  1  0
  3  4  2  0
  4  5  1  0
  5  6  2  0
  6  7  1  0
  7  8  2  0
  8  9  1  0
  7 10  1  0
  4 11  1  0
  2 12  1  0
 12 13  1  0
 13 14  2  0
 14 15  1  0
 15 16  2  0
 16 17  1  0
 17 18  2  0
 18 19  1  0
 15 20  1  0
 20 21  1  0
 21 22  2  0
 22 23  1  0
 23 24  1  0
 23 25  1  0
 25 26  1  0
 26 27  1  0
 27 28  1  0
 28 29  1  0
 29 30  1  0
  8  3  1  0
 18 13  1  0
 24 20  2  0
 30 25  1  0
  1 31  1  0
  1 32  1  0
  1 33  1  0
  2 34  1  6
  5 35  1  0
  6 36  1  0
 14 37  1  0
 16 38  1  0
 19 39  1  0
 19 40  1  0
 21 41  1  0
 24 42  1  0
 25 43  1  0
 26 44  1  0
 26 45  1  0
 27 46  1  0
 27 47  1  0
 28 48  1  0
 29 49  1  0
 29 50  1  0
 30 51  1  0
 30 52  1  0
M  END
>  <energy_abs>  (103) 
40.853721887730714

>  <SMILES>  (103) 
C[C@H](c1c(ccc(c1Cl)F)Cl)Oc2cc(cnc2N)c3cnn(c3)C4CCNCC4

>  <cluster_no>  (103) 
103

>  <fda_drugs_id>  (103) 
KTEIFNKAUNYNJU-GFCCVEGCSA-N

>  <initial_conformation_id>  (103) 
202

>  <minimize_method>  (103) 
MMFF

$$$$

     RDKit          3D

 52 55  0  0  0  0  0  0  0  0999 V2000
    2.4084   -2.5992   -0.0306 C   0  0  0  0  0  0  0  0  0  0  0  0
    3.4544   -1.5955    0.4704 C   0  0  2  0  0  0  0  0  0  0  0  0
    4.3150   -2.1834    1.5879 C   0  0  0  0  0  0  0  0  0  0  0  0
    5.6762   -2.4972    1.3618 C   0  0  0  0  0  0  0  0  0  0  0  0
    6.4863   -3.0431    2.3728 C   0  0  0  0  0  0  0  0  0  0  0  0
    5.9625   -3.2852    3.6377 C   0  0  0  0  0  0  0  0  0  0  0  0
    4.6269   -2.9925    3.8822 C   0  0  0  0  0  0  0  0  0  0  0  0
    3.8027   -2.4512    2.8817 C   0  0  0  0  0  0  0  0  0  0  0  0
    2.1525   -2.1468    3.3197 Cl  0  0  0  0  0  0  0  0  0  0  0  0
    4.1349   -3.2564    5.1031 F   0  0  0  0  0  0  0  0  0  0  0  0
    6.4469   -2.2658   -0.1731 Cl  0  0  0  0  0  0  0  0  0  0  0  0
    2.8736   -0.3747    0.9683 O   0  0  0  0  0  0  0  0  0  0  0  0
    2.3780    0.4344   -0.0200 C   0  0  0  0  0  0  0  0  0  0  0  0
    0.9974    0.4448   -0.2174 C   0  0  0  0  0  0  0  0  0  0  0  0
    0.4365    1.2955   -1.1713 C   0  0  0  0  0  0  0  0  0  0  0  0
    1.3284    2.1010   -1.8761 C   0  0  0  0  0  0  0  0  0  0  0  0
    2.6720    2.1358   -1.6774 N   0  0  0  0  0  0  0  0  0  0  0  0
    3.1843    1.3276   -0.7350 C   0  0  0  0  0  0  0  0  0  0  0  0
    4.5504    1.4642   -0.4531 N   0  0  0  0  0  0  0  0  0  0  0  0
   -1.0034    1.3358   -1.3830 C   0  0  0  0  0  0  0  0  0  0  0  0
   -2.0446    0.6149   -0.7527 C   0  0  0  0  0  0  0  0  0  0  0  0
   -3.2559    0.9552   -1.1945 N   0  0  0  0  0  0  0  0  0  0  0  0
   -3.0087    1.8973   -2.1184 N   0  0  0  0  0  0  0  0  0  0  0  0
   -1.6716    2.1621   -2.2670 C   0  0  0  0  0  0  0  0  0  0  0  0
   -4.1105    2.5520   -2.8203 C   0  0  0  0  0  0  0  0  0  0  0  0
   -4.7691    1.5982   -3.8288 C   0  0  0  0  0  0  0  0  0  0  0  0
   -6.2026    2.0286   -4.1238 C   0  0  0  0  0  0  0  0  0  0  0  0
   -7.0557    2.0272   -2.9350 N   0  0  0  0  0  0  0  0  0  0  0  0
   -6.3501    2.2731   -1.6739 C   0  0  0  0  0  0  0  0  0  0  0  0
   -5.1304    3.1761   -1.8453 C   0  0  0  0  0  0  0  0  0  0  0  0
    1.9788   -2.2573   -0.9825 H   0  0  0  0  0  0  0  0  0  0  0  0
    2.8527   -3.5818   -0.2047 H   0  0  0  0  0  0  0  0  0  0  0  0
    1.5664   -2.7079    0.6602 H   0  0  0  0  0  0  0  0  0  0  0  0
    4.0825   -1.3438   -0.3883 H   0  0  0  0  0  0  0  0  0  0  0  0
    7.5275   -3.2878    2.1720 H   0  0  0  0  0  0  0  0  0  0  0  0
    6.5722   -3.7076    4.4288 H   0  0  0  0  0  0  0  0  0  0  0  0
    0.3797   -0.2109    0.3913 H   0  0  0  0  0  0  0  0  0  0  0  0
    0.9929    2.7918   -2.6450 H   0  0  0  0  0  0  0  0  0  0  0  0
    5.0268    0.5824   -0.5893 H   0  0  0  0  0  0  0  0  0  0  0  0
    4.6422    1.7114    0.5283 H   0  0  0  0  0  0  0  0  0  0  0  0
   -1.9747   -0.1395    0.0183 H   0  0  0  0  0  0  0  0  0  0  0  0
   -1.3326    2.9101   -2.9681 H   0  0  0  0  0  0  0  0  0  0  0  0
   -3.6475    3.3833   -3.3762 H   0  0  0  0  0  0  0  0  0  0  0  0
   -4.1873    1.5802   -4.7542 H   0  0  0  0  0  0  0  0  0  0  0  0
   -4.7709    0.5660   -3.4579 H   0  0  0  0  0  0  0  0  0  0  0  0
   -6.6474    1.3607   -4.8695 H   0  0  0  0  0  0  0  0  0  0  0  0
   -6.1957    3.0348   -4.5619 H   0  0  0  0  0  0  0  0  0  0  0  0
   -7.8184    2.6943   -3.0530 H   0  0  0  0  0  0  0  0  0  0  0  0
   -6.0534    1.3103   -1.2430 H   0  0  0  0  0  0  0  0  0  0  0  0
   -7.0489    2.7242   -0.9582 H   0  0  0  0  0  0  0  0  0  0  0  0
   -4.6771    3.3957   -0.8693 H   0  0  0  0  0  0  0  0  0  0  0  0
   -5.4619    4.1430   -2.2497 H   0  0  0  0  0  0  0  0  0  0  0  0
  1  2  1  0
  2  3  1  0
  3  4  2  0
  4  5  1  0
  5  6  2  0
  6  7  1  0
  7  8  2  0
  8  9  1  0
  7 10  1  0
  4 11  1  0
  2 12  1  0
 12 13  1  0
 13 14  2  0
 14 15  1  0
 15 16  2  0
 16 17  1  0
 17 18  2  0
 18 19  1  0
 15 20  1  0
 20 21  1  0
 21 22  2  0
 22 23  1  0
 23 24  1  0
 23 25  1  0
 25 26  1  0
 26 27  1  0
 27 28  1  0
 28 29  1  0
 29 30  1  0
  8  3  1  0
 18 13  1  0
 24 20  2  0
 30 25  1  0
  1 31  1  0
  1 32  1  0
  1 33  1  0
  2 34  1  6
  5 35  1  0
  6 36  1  0
 14 37  1  0
 16 38  1  0
 19 39  1  0
 19 40  1  0
 21 41  1  0
 24 42  1  0
 25 43  1  0
 26 44  1  0
 26 45  1  0
 27 46  1  0
 27 47  1  0
 28 48  1  0
 29 49  1  0
 29 50  1  0
 30 51  1  0
 30 52  1  0
M  END
>  <energy_abs>  (104) 
41.88456051021731

>  <SMILES>  (104) 
C[C@H](c1c(ccc(c1Cl)F)Cl)Oc2cc(cnc2N)c3cnn(c3)C4CCNCC4

>  <cluster_no>  (104) 
104

>  <fda_drugs_id>  (104) 
KTEIFNKAUNYNJU-GFCCVEGCSA-N

>  <initial_conformation_id>  (104) 
201

>  <minimize_method>  (104) 
MMFF

$$$$

     RDKit          3D

 52 55  0  0  0  0  0  0  0  0999 V2000
    1.7793   -2.9133    1.0887 C   0  0  0  0  0  0  0  0  0  0  0  0
    2.8620   -1.8437    0.9202 C   0  0  2  0  0  0  0  0  0  0  0  0
    4.1665   -2.2575    1.5968 C   0  0  0  0  0  0  0  0  0  0  0  0
    5.2671   -2.6956    0.8228 C   0  0  0  0  0  0  0  0  0  0  0  0
    6.4764   -3.0844    1.4176 C   0  0  0  0  0  0  0  0  0  0  0  0
    6.6195   -3.0545    2.7987 C   0  0  0  0  0  0  0  0  0  0  0  0
    5.5509   -2.6405    3.5801 C   0  0  0  0  0  0  0  0  0  0  0  0
    4.3343   -2.2489    3.0023 C   0  0  0  0  0  0  0  0  0  0  0  0
    3.0795   -1.7750    4.0992 Cl  0  0  0  0  0  0  0  0  0  0  0  0
    5.7101   -2.6295    4.9124 F   0  0  0  0  0  0  0  0  0  0  0  0
    5.2140   -2.7933   -0.9052 Cl  0  0  0  0  0  0  0  0  0  0  0  0
    2.4119   -0.5899    1.4695 O   0  0  0  0  0  0  0  0  0  0  0  0
    2.0198    0.2947    0.4988 C   0  0  0  0  0  0  0  0  0  0  0  0
    0.6661    0.3801    0.1784 C   0  0  0  0  0  0  0  0  0  0  0  0
    0.2473    1.2920   -0.7904 C   0  0  0  0  0  0  0  0  0  0  0  0
    1.2335    2.0869   -1.3700 C   0  0  0  0  0  0  0  0  0  0  0  0
    2.5534    2.0383   -1.0546 N   0  0  0  0  0  0  0  0  0  0  0  0
    2.9332    1.1644   -0.1090 C   0  0  0  0  0  0  0  0  0  0  0  0
    4.2951    1.1293    0.2261 N   0  0  0  0  0  0  0  0  0  0  0  0
   -1.1514    1.4015   -1.1592 C   0  0  0  0  0  0  0  0  0  0  0  0
   -2.3248    1.0732   -0.4401 C   0  0  0  0  0  0  0  0  0  0  0  0
   -3.4410    1.3037   -1.1351 N   0  0  0  0  0  0  0  0  0  0  0  0
   -2.9910    1.7850   -2.3097 N   0  0  0  0  0  0  0  0  0  0  0  0
   -1.6259    1.8572   -2.3724 C   0  0  0  0  0  0  0  0  0  0  0  0
   -3.9304    2.1652   -3.3623 C   0  0  0  0  0  0  0  0  0  0  0  0
   -4.6901    3.4435   -2.9798 C   0  0  0  0  0  0  0  0  0  0  0  0
   -5.9676    3.5726   -3.7976 C   0  0  0  0  0  0  0  0  0  0  0  0
   -6.8856    2.4454   -3.6392 N   0  0  0  0  0  0  0  0  0  0  0  0
   -6.2574    1.2148   -3.1517 C   0  0  0  0  0  0  0  0  0  0  0  0
   -4.8698    1.0109   -3.7465 C   0  0  0  0  0  0  0  0  0  0  0  0
    1.4452   -3.0088    2.1258 H   0  0  0  0  0  0  0  0  0  0  0  0
    0.8903   -2.6504    0.5053 H   0  0  0  0  0  0  0  0  0  0  0  0
    2.1314   -3.8928    0.7478 H   0  0  0  0  0  0  0  0  0  0  0  0
    3.0201   -1.7231   -0.1568 H   0  0  0  0  0  0  0  0  0  0  0  0
    7.3108   -3.4179    0.8031 H   0  0  0  0  0  0  0  0  0  0  0  0
    7.5500   -3.3547    3.2710 H   0  0  0  0  0  0  0  0  0  0  0  0
   -0.0410   -0.2714    0.6828 H   0  0  0  0  0  0  0  0  0  0  0  0
    0.9939    2.8312   -2.1248 H   0  0  0  0  0  0  0  0  0  0  0  0
    4.6868    0.2375   -0.0541 H   0  0  0  0  0  0  0  0  0  0  0  0
    4.3708    1.1954    1.2384 H   0  0  0  0  0  0  0  0  0  0  0  0
   -2.4138    0.6785    0.5642 H   0  0  0  0  0  0  0  0  0  0  0  0
   -1.1265    2.2110   -3.2635 H   0  0  0  0  0  0  0  0  0  0  0  0
   -3.3096    2.3815   -4.2428 H   0  0  0  0  0  0  0  0  0  0  0  0
   -4.0478    4.3176   -3.1453 H   0  0  0  0  0  0  0  0  0  0  0  0
   -4.9451    3.4526   -1.9115 H   0  0  0  0  0  0  0  0  0  0  0  0
   -5.7100    3.6618   -4.8595 H   0  0  0  0  0  0  0  0  0  0  0  0
   -6.4868    4.4998   -3.5293 H   0  0  0  0  0  0  0  0  0  0  0  0
   -7.6427    2.6991   -3.0020 H   0  0  0  0  0  0  0  0  0  0  0  0
   -6.2030    1.2345   -2.0570 H   0  0  0  0  0  0  0  0  0  0  0  0
   -6.8990    0.3692   -3.4205 H   0  0  0  0  0  0  0  0  0  0  0  0
   -4.9586    0.9728   -4.8406 H   0  0  0  0  0  0  0  0  0  0  0  0
   -4.4662    0.0382   -3.4407 H   0  0  0  0  0  0  0  0  0  0  0  0
  1  2  1  0
  2  3  1  0
  3  4  2  0
  4  5  1  0
  5  6  2  0
  6  7  1  0
  7  8  2  0
  8  9  1  0
  7 10  1  0
  4 11  1  0
  2 12  1  0
 12 13  1  0
 13 14  2  0
 14 15  1  0
 15 16  2  0
 16 17  1  0
 17 18  2  0
 18 19  1  0
 15 20  1  0
 20 21  1  0
 21 22  2  0
 22 23  1  0
 23 24  1  0
 23 25  1  0
 25 26  1  0
 26 27  1  0
 27 28  1  0
 28 29  1  0
 29 30  1  0
  8  3  1  0
 18 13  1  0
 24 20  2  0
 30 25  1  0
  1 31  1  0
  1 32  1  0
  1 33  1  0
  2 34  1  6
  5 35  1  0
  6 36  1  0
 14 37  1  0
 16 38  1  0
 19 39  1  0
 19 40  1  0
 21 41  1  0
 24 42  1  0
 25 43  1  0
 26 44  1  0
 26 45  1  0
 27 46  1  0
 27 47  1  0
 28 48  1  0
 29 49  1  0
 29 50  1  0
 30 51  1  0
 30 52  1  0
M  END
>  <energy_abs>  (105) 
39.259159534584974

>  <SMILES>  (105) 
C[C@H](c1c(ccc(c1Cl)F)Cl)Oc2cc(cnc2N)c3cnn(c3)C4CCNCC4

>  <cluster_no>  (105) 
105

>  <fda_drugs_id>  (105) 
KTEIFNKAUNYNJU-GFCCVEGCSA-N

>  <initial_conformation_id>  (105) 
200

>  <minimize_method>  (105) 
MMFF

$$$$

     RDKit          3D

 52 55  0  0  0  0  0  0  0  0999 V2000
    2.6089   -2.8270   -0.4196 C   0  0  0  0  0  0  0  0  0  0  0  0
    3.0528   -1.7400    0.5628 C   0  0  2  0  0  0  0  0  0  0  0  0
    4.1784   -2.2343    1.4685 C   0  0  0  0  0  0  0  0  0  0  0  0
    3.9571   -3.1340    2.5385 C   0  0  0  0  0  0  0  0  0  0  0  0
    5.0114   -3.5699    3.3563 C   0  0  0  0  0  0  0  0  0  0  0  0
    6.3100   -3.1322    3.1276 C   0  0  0  0  0  0  0  0  0  0  0  0
    6.5522   -2.2628    2.0760 C   0  0  0  0  0  0  0  0  0  0  0  0
    5.5118   -1.8157    1.2498 C   0  0  0  0  0  0  0  0  0  0  0  0
    5.9461   -0.7422   -0.0403 Cl  0  0  0  0  0  0  0  0  0  0  0  0
    7.8147   -1.8608    1.8647 F   0  0  0  0  0  0  0  0  0  0  0  0
    2.4005   -3.7841    2.9288 Cl  0  0  0  0  0  0  0  0  0  0  0  0
    1.9337   -1.3190    1.3664 O   0  0  0  0  0  0  0  0  0  0  0  0
    1.4600   -0.0868    0.9990 C   0  0  0  0  0  0  0  0  0  0  0  0
    0.3918   -0.0159    0.1062 C   0  0  0  0  0  0  0  0  0  0  0  0
   -0.1263    1.2311   -0.2433 C   0  0  0  0  0  0  0  0  0  0  0  0
    0.4700    2.3450    0.3442 C   0  0  0  0  0  0  0  0  0  0  0  0
    1.4945    2.2972    1.2338 N   0  0  0  0  0  0  0  0  0  0  0  0
    1.9637    1.0865    1.5742 C   0  0  0  0  0  0  0  0  0  0  0  0
    3.0179    1.0404    2.4984 N   0  0  0  0  0  0  0  0  0  0  0  0
   -1.2285    1.3481   -1.1799 C   0  0  0  0  0  0  0  0  0  0  0  0
   -1.6632    0.4837   -2.2099 C   0  0  0  0  0  0  0  0  0  0  0  0
   -2.7355    0.9448   -2.8572 N   0  0  0  0  0  0  0  0  0  0  0  0
   -3.0043    2.1120   -2.2441 N   0  0  0  0  0  0  0  0  0  0  0  0
   -2.1284    2.3925   -1.2284 C   0  0  0  0  0  0  0  0  0  0  0  0
   -4.1308    2.9458   -2.6609 C   0  0  0  0  0  0  0  0  0  0  0  0
   -4.0031    3.4327   -4.1101 C   0  0  0  0  0  0  0  0  0  0  0  0
   -4.5098    2.4134   -5.1254 C   0  0  0  0  0  0  0  0  0  0  0  0
   -5.8705    1.9833   -4.8018 N   0  0  0  0  0  0  0  0  0  0  0  0
   -5.9050    1.3202   -3.4970 C   0  0  0  0  0  0  0  0  0  0  0  0
   -5.4851    2.2805   -2.3884 C   0  0  0  0  0  0  0  0  0  0  0  0
    3.4536   -3.2011   -1.0077 H   0  0  0  0  0  0  0  0  0  0  0  0
    1.8590   -2.4319   -1.1127 H   0  0  0  0  0  0  0  0  0  0  0  0
    2.1389   -3.6757    0.0852 H   0  0  0  0  0  0  0  0  0  0  0  0
    3.3968   -0.8917   -0.0386 H   0  0  0  0  0  0  0  0  0  0  0  0
    4.8195   -4.2595    4.1774 H   0  0  0  0  0  0  0  0  0  0  0  0
    7.1311   -3.4666    3.7546 H   0  0  0  0  0  0  0  0  0  0  0  0
   -0.0337   -0.9333   -0.2884 H   0  0  0  0  0  0  0  0  0  0  0  0
    0.1426    3.3551    0.1120 H   0  0  0  0  0  0  0  0  0  0  0  0
    2.7796    0.3623    3.2182 H   0  0  0  0  0  0  0  0  0  0  0  0
    3.8560    0.7149    2.0298 H   0  0  0  0  0  0  0  0  0  0  0  0
   -1.2402   -0.4629   -2.5211 H   0  0  0  0  0  0  0  0  0  0  0  0
   -2.2307    3.2927   -0.6381 H   0  0  0  0  0  0  0  0  0  0  0  0
   -4.0678    3.8328   -2.0155 H   0  0  0  0  0  0  0  0  0  0  0  0
   -4.5948    4.3514   -4.2187 H   0  0  0  0  0  0  0  0  0  0  0  0
   -2.9655    3.7020   -4.3420 H   0  0  0  0  0  0  0  0  0  0  0  0
   -3.8395    1.5503   -5.1975 H   0  0  0  0  0  0  0  0  0  0  0  0
   -4.5194    2.8808   -6.1170 H   0  0  0  0  0  0  0  0  0  0  0  0
   -6.1750    1.3162   -5.5124 H   0  0  0  0  0  0  0  0  0  0  0  0
   -6.9308    0.9859   -3.3033 H   0  0  0  0  0  0  0  0  0  0  0  0
   -5.2826    0.4186   -3.5050 H   0  0  0  0  0  0  0  0  0  0  0  0
   -5.4766    1.7537   -1.4264 H   0  0  0  0  0  0  0  0  0  0  0  0
   -6.2465    3.0679   -2.3064 H   0  0  0  0  0  0  0  0  0  0  0  0
  1  2  1  0
  2  3  1  0
  3  4  2  0
  4  5  1  0
  5  6  2  0
  6  7  1  0
  7  8  2  0
  8  9  1  0
  7 10  1  0
  4 11  1  0
  2 12  1  0
 12 13  1  0
 13 14  2  0
 14 15  1  0
 15 16  2  0
 16 17  1  0
 17 18  2  0
 18 19  1  0
 15 20  1  0
 20 21  1  0
 21 22  2  0
 22 23  1  0
 23 24  1  0
 23 25  1  0
 25 26  1  0
 26 27  1  0
 27 28  1  0
 28 29  1  0
 29 30  1  0
  8  3  1  0
 18 13  1  0
 24 20  2  0
 30 25  1  0
  1 31  1  0
  1 32  1  0
  1 33  1  0
  2 34  1  6
  5 35  1  0
  6 36  1  0
 14 37  1  0
 16 38  1  0
 19 39  1  0
 19 40  1  0
 21 41  1  0
 24 42  1  0
 25 43  1  0
 26 44  1  0
 26 45  1  0
 27 46  1  0
 27 47  1  0
 28 48  1  0
 29 49  1  0
 29 50  1  0
 30 51  1  0
 30 52  1  0
M  END
>  <energy_abs>  (106) 
32.3811433610826

>  <SMILES>  (106) 
C[C@H](c1c(ccc(c1Cl)F)Cl)Oc2cc(cnc2N)c3cnn(c3)C4CCNCC4

>  <cluster_no>  (106) 
106

>  <fda_drugs_id>  (106) 
KTEIFNKAUNYNJU-GFCCVEGCSA-N

>  <initial_conformation_id>  (106) 
198

>  <minimize_method>  (106) 
MMFF

$$$$

     RDKit          3D

 52 55  0  0  0  0  0  0  0  0999 V2000
    1.7751   -2.1492    3.5109 C   0  0  0  0  0  0  0  0  0  0  0  0
    2.3339   -1.6408    2.1795 C   0  0  2  0  0  0  0  0  0  0  0  0
    3.7864   -2.0602    1.9839 C   0  0  0  0  0  0  0  0  0  0  0  0
    4.1141   -3.0983    1.0816 C   0  0  0  0  0  0  0  0  0  0  0  0
    5.4427   -3.4938    0.8681 C   0  0  0  0  0  0  0  0  0  0  0  0
    6.4781   -2.8691    1.5509 C   0  0  0  0  0  0  0  0  0  0  0  0
    6.1796   -1.8569    2.4506 C   0  0  0  0  0  0  0  0  0  0  0  0
    4.8573   -1.4507    2.6778 C   0  0  0  0  0  0  0  0  0  0  0  0
    4.6281   -0.1866    3.8419 Cl  0  0  0  0  0  0  0  0  0  0  0  0
    7.1960   -1.2761    3.1071 F   0  0  0  0  0  0  0  0  0  0  0  0
    2.9152   -3.9775    0.1923 Cl  0  0  0  0  0  0  0  0  0  0  0  0
    2.1747   -0.2076    2.1412 O   0  0  0  0  0  0  0  0  0  0  0  0
    1.8029    0.2295    0.8956 C   0  0  0  0  0  0  0  0  0  0  0  0
    0.4605    0.1785    0.5217 C   0  0  0  0  0  0  0  0  0  0  0  0
    0.0826    0.6610   -0.7305 C   0  0  0  0  0  0  0  0  0  0  0  0
    1.0902    1.1846   -1.5387 C   0  0  0  0  0  0  0  0  0  0  0  0
    2.3993    1.2676   -1.1872 N   0  0  0  0  0  0  0  0  0  0  0  0
    2.7359    0.8061    0.0296 C   0  0  0  0  0  0  0  0  0  0  0  0
    4.0885    0.8796    0.3608 N   0  0  0  0  0  0  0  0  0  0  0  0
   -1.2974    0.6051   -1.1646 C   0  0  0  0  0  0  0  0  0  0  0  0
   -2.3079   -0.3475   -0.9041 C   0  0  0  0  0  0  0  0  0  0  0  0
   -3.4711   -0.0351   -1.4796 N   0  0  0  0  0  0  0  0  0  0  0  0
   -3.2156    1.1269   -2.1104 N   0  0  0  0  0  0  0  0  0  0  0  0
   -1.9236    1.5500   -1.9508 C   0  0  0  0  0  0  0  0  0  0  0  0
   -4.2820    1.7868   -2.8530 C   0  0  0  0  0  0  0  0  0  0  0  0
   -4.6477    3.1440   -2.2417 C   0  0  0  0  0  0  0  0  0  0  0  0
   -5.7415    3.8197   -3.0618 C   0  0  0  0  0  0  0  0  0  0  0  0
   -5.3621    3.9536   -4.4685 N   0  0  0  0  0  0  0  0  0  0  0  0
   -5.0662    2.6553   -5.0738 C   0  0  0  0  0  0  0  0  0  0  0  0
   -3.9409    1.9336   -4.3403 C   0  0  0  0  0  0  0  0  0  0  0  0
    1.8625   -3.2376    3.5902 H   0  0  0  0  0  0  0  0  0  0  0  0
    2.2775   -1.7015    4.3731 H   0  0  0  0  0  0  0  0  0  0  0  0
    0.7165   -1.8788    3.5991 H   0  0  0  0  0  0  0  0  0  0  0  0
    1.6952   -2.0833    1.4079 H   0  0  0  0  0  0  0  0  0  0  0  0
    5.6735   -4.2915    0.1655 H   0  0  0  0  0  0  0  0  0  0  0  0
    7.5108   -3.1624    1.3908 H   0  0  0  0  0  0  0  0  0  0  0  0
   -0.2736   -0.2179    1.2158 H   0  0  0  0  0  0  0  0  0  0  0  0
    0.8766    1.5605   -2.5354 H   0  0  0  0  0  0  0  0  0  0  0  0
    4.2064    1.2706    1.2912 H   0  0  0  0  0  0  0  0  0  0  0  0
    4.5524    1.4212   -0.3620 H   0  0  0  0  0  0  0  0  0  0  0  0
   -2.2432   -1.2596   -0.3243 H   0  0  0  0  0  0  0  0  0  0  0  0
   -1.5769    2.4762   -2.3876 H   0  0  0  0  0  0  0  0  0  0  0  0
   -5.1602    1.1302   -2.7717 H   0  0  0  0  0  0  0  0  0  0  0  0
   -4.9885    3.0136   -1.2073 H   0  0  0  0  0  0  0  0  0  0  0  0
   -3.7669    3.7983   -2.2004 H   0  0  0  0  0  0  0  0  0  0  0  0
   -5.9405    4.8170   -2.6533 H   0  0  0  0  0  0  0  0  0  0  0  0
   -6.6798    3.2574   -2.9820 H   0  0  0  0  0  0  0  0  0  0  0  0
   -4.5478    4.5638   -4.5476 H   0  0  0  0  0  0  0  0  0  0  0  0
   -5.9720    2.0365   -5.0868 H   0  0  0  0  0  0  0  0  0  0  0  0
   -4.7793    2.8097   -6.1199 H   0  0  0  0  0  0  0  0  0  0  0  0
   -3.7773    0.9474   -4.7916 H   0  0  0  0  0  0  0  0  0  0  0  0
   -3.0057    2.4947   -4.4675 H   0  0  0  0  0  0  0  0  0  0  0  0
  1  2  1  0
  2  3  1  0
  3  4  2  0
  4  5  1  0
  5  6  2  0
  6  7  1  0
  7  8  2  0
  8  9  1  0
  7 10  1  0
  4 11  1  0
  2 12  1  0
 12 13  1  0
 13 14  2  0
 14 15  1  0
 15 16  2  0
 16 17  1  0
 17 18  2  0
 18 19  1  0
 15 20  1  0
 20 21  1  0
 21 22  2  0
 22 23  1  0
 23 24  1  0
 23 25  1  0
 25 26  1  0
 26 27  1  0
 27 28  1  0
 28 29  1  0
 29 30  1  0
  8  3  1  0
 18 13  1  0
 24 20  2  0
 30 25  1  0
  1 31  1  0
  1 32  1  0
  1 33  1  0
  2 34  1  6
  5 35  1  0
  6 36  1  0
 14 37  1  0
 16 38  1  0
 19 39  1  0
 19 40  1  0
 21 41  1  0
 24 42  1  0
 25 43  1  0
 26 44  1  0
 26 45  1  0
 27 46  1  0
 27 47  1  0
 28 48  1  0
 29 49  1  0
 29 50  1  0
 30 51  1  0
 30 52  1  0
M  END
>  <energy_abs>  (107) 
23.894417174710725

>  <SMILES>  (107) 
C[C@H](c1c(ccc(c1Cl)F)Cl)Oc2cc(cnc2N)c3cnn(c3)C4CCNCC4

>  <cluster_no>  (107) 
107

>  <fda_drugs_id>  (107) 
KTEIFNKAUNYNJU-GFCCVEGCSA-N

>  <initial_conformation_id>  (107) 
197

>  <minimize_method>  (107) 
MMFF

$$$$

     RDKit          3D

 52 55  0  0  0  0  0  0  0  0999 V2000
    1.6856   -2.4774    2.0134 C   0  0  0  0  0  0  0  0  0  0  0  0
    2.8462   -1.8701    1.2161 C   0  0  2  0  0  0  0  0  0  0  0  0
    4.1987   -2.1211    1.8773 C   0  0  0  0  0  0  0  0  0  0  0  0
    5.1489   -2.9783    1.2765 C   0  0  0  0  0  0  0  0  0  0  0  0
    6.3994   -3.2213    1.8663 C   0  0  0  0  0  0  0  0  0  0  0  0
    6.7325   -2.6218    3.0744 C   0  0  0  0  0  0  0  0  0  0  0  0
    5.8146   -1.7805    3.6866 C   0  0  0  0  0  0  0  0  0  0  0  0
    4.5647   -1.5201    3.1062 C   0  0  0  0  0  0  0  0  0  0  0  0
    3.5238   -0.4378    3.9730 Cl  0  0  0  0  0  0  0  0  0  0  0  0
    6.1502   -1.2254    4.8640 F   0  0  0  0  0  0  0  0  0  0  0  0
    4.8576   -3.7976   -0.2217 Cl  0  0  0  0  0  0  0  0  0  0  0  0
    2.6825   -0.4480    1.0566 O   0  0  0  0  0  0  0  0  0  0  0  0
    1.9820   -0.1192   -0.0746 C   0  0  0  0  0  0  0  0  0  0  0  0
    0.6431    0.2479    0.0678 C   0  0  0  0  0  0  0  0  0  0  0  0
   -0.0926    0.6277   -1.0548 C   0  0  0  0  0  0  0  0  0  0  0  0
    0.5884    0.6198   -2.2710 C   0  0  0  0  0  0  0  0  0  0  0  0
    1.8998    0.3007   -2.4286 N   0  0  0  0  0  0  0  0  0  0  0  0
    2.5941   -0.0356   -1.3305 C   0  0  0  0  0  0  0  0  0  0  0  0
    3.9565   -0.3238   -1.4960 N   0  0  0  0  0  0  0  0  0  0  0  0
   -1.4884    1.0149   -0.9384 C   0  0  0  0  0  0  0  0  0  0  0  0
   -2.3836    0.9283    0.1550 C   0  0  0  0  0  0  0  0  0  0  0  0
   -3.5928    1.4246   -0.1166 N   0  0  0  0  0  0  0  0  0  0  0  0
   -3.4894    1.8308   -1.3967 N   0  0  0  0  0  0  0  0  0  0  0  0
   -2.2500    1.5993   -1.9313 C   0  0  0  0  0  0  0  0  0  0  0  0
   -4.6403    2.4587   -2.0392 C   0  0  0  0  0  0  0  0  0  0  0  0
   -5.2440    1.5512   -3.1200 C   0  0  0  0  0  0  0  0  0  0  0  0
   -6.0734    2.3787   -4.0914 C   0  0  0  0  0  0  0  0  0  0  0  0
   -5.2543    3.3437   -4.8183 N   0  0  0  0  0  0  0  0  0  0  0  0
   -4.1345    3.9047   -4.0630 C   0  0  0  0  0  0  0  0  0  0  0  0
   -4.3405    3.8794   -2.5524 C   0  0  0  0  0  0  0  0  0  0  0  0
    1.9034   -3.5082    2.3161 H   0  0  0  0  0  0  0  0  0  0  0  0
    1.4261   -1.8940    2.9013 H   0  0  0  0  0  0  0  0  0  0  0  0
    0.7799   -2.4942    1.3954 H   0  0  0  0  0  0  0  0  0  0  0  0
    2.8166   -2.3468    0.2327 H   0  0  0  0  0  0  0  0  0  0  0  0
    7.1188   -3.8829    1.3856 H   0  0  0  0  0  0  0  0  0  0  0  0
    7.6931   -2.8051    3.5444 H   0  0  0  0  0  0  0  0  0  0  0  0
    0.2022    0.2415    1.0597 H   0  0  0  0  0  0  0  0  0  0  0  0
    0.0964    0.8820   -3.2028 H   0  0  0  0  0  0  0  0  0  0  0  0
    4.1289   -1.3048   -1.3051 H   0  0  0  0  0  0  0  0  0  0  0  0
    4.4802    0.2224   -0.8162 H   0  0  0  0  0  0  0  0  0  0  0  0
   -2.2049    0.5319    1.1457 H   0  0  0  0  0  0  0  0  0  0  0  0
   -2.0254    1.8766   -2.9512 H   0  0  0  0  0  0  0  0  0  0  0  0
   -5.3893    2.5722   -1.2408 H   0  0  0  0  0  0  0  0  0  0  0  0
   -5.8710    0.7819   -2.6496 H   0  0  0  0  0  0  0  0  0  0  0  0
   -4.4640    1.0121   -3.6746 H   0  0  0  0  0  0  0  0  0  0  0  0
   -6.5667    1.7191   -4.8135 H   0  0  0  0  0  0  0  0  0  0  0  0
   -6.8680    2.9043   -3.5462 H   0  0  0  0  0  0  0  0  0  0  0  0
   -5.8462    4.0850   -5.1950 H   0  0  0  0  0  0  0  0  0  0  0  0
   -3.9595    4.9364   -4.3915 H   0  0  0  0  0  0  0  0  0  0  0  0
   -3.2278    3.3474   -4.3261 H   0  0  0  0  0  0  0  0  0  0  0  0
   -3.4732    4.3168   -2.0466 H   0  0  0  0  0  0  0  0  0  0  0  0
   -5.1939    4.5268   -2.3110 H   0  0  0  0  0  0  0  0  0  0  0  0
  1  2  1  0
  2  3  1  0
  3  4  2  0
  4  5  1  0
  5  6  2  0
  6  7  1  0
  7  8  2  0
  8  9  1  0
  7 10  1  0
  4 11  1  0
  2 12  1  0
 12 13  1  0
 13 14  2  0
 14 15  1  0
 15 16  2  0
 16 17  1  0
 17 18  2  0
 18 19  1  0
 15 20  1  0
 20 21  1  0
 21 22  2  0
 22 23  1  0
 23 24  1  0
 23 25  1  0
 25 26  1  0
 26 27  1  0
 27 28  1  0
 28 29  1  0
 29 30  1  0
  8  3  1  0
 18 13  1  0
 24 20  2  0
 30 25  1  0
  1 31  1  0
  1 32  1  0
  1 33  1  0
  2 34  1  6
  5 35  1  0
  6 36  1  0
 14 37  1  0
 16 38  1  0
 19 39  1  0
 19 40  1  0
 21 41  1  0
 24 42  1  0
 25 43  1  0
 26 44  1  0
 26 45  1  0
 27 46  1  0
 27 47  1  0
 28 48  1  0
 29 49  1  0
 29 50  1  0
 30 51  1  0
 30 52  1  0
M  END
>  <energy_abs>  (108) 
41.189196623558715

>  <SMILES>  (108) 
C[C@H](c1c(ccc(c1Cl)F)Cl)Oc2cc(cnc2N)c3cnn(c3)C4CCNCC4

>  <cluster_no>  (108) 
108

>  <fda_drugs_id>  (108) 
KTEIFNKAUNYNJU-GFCCVEGCSA-N

>  <initial_conformation_id>  (108) 
196

>  <minimize_method>  (108) 
MMFF

$$$$

     RDKit          3D

 52 55  0  0  0  0  0  0  0  0999 V2000
    1.8904   -2.7648    1.1939 C   0  0  0  0  0  0  0  0  0  0  0  0
    3.1324   -1.9964    0.7247 C   0  0  2  0  0  0  0  0  0  0  0  0
    4.2384   -2.0250    1.7804 C   0  0  0  0  0  0  0  0  0  0  0  0
    5.4348   -2.7492    1.5540 C   0  0  0  0  0  0  0  0  0  0  0  0
    6.4660   -2.7883    2.5113 C   0  0  0  0  0  0  0  0  0  0  0  0
    6.3392   -2.0972    3.7115 C   0  0  0  0  0  0  0  0  0  0  0  0
    5.1798   -1.3725    3.9556 C   0  0  0  0  0  0  0  0  0  0  0  0
    4.1347   -1.3298    3.0138 C   0  0  0  0  0  0  0  0  0  0  0  0
    2.7428   -0.3741    3.4452 Cl  0  0  0  0  0  0  0  0  0  0  0  0
    5.0746   -0.7138    5.1290 F   0  0  0  0  0  0  0  0  0  0  0  0
    5.7257   -3.6378    0.0949 Cl  0  0  0  0  0  0  0  0  0  0  0  0
    2.8826   -0.6124    0.4291 O   0  0  0  0  0  0  0  0  0  0  0  0
    2.0303   -0.3955   -0.6211 C   0  0  0  0  0  0  0  0  0  0  0  0
    0.7275   -0.0008   -0.3099 C   0  0  0  0  0  0  0  0  0  0  0  0
   -0.1642    0.3343   -1.3309 C   0  0  0  0  0  0  0  0  0  0  0  0
    0.3273    0.2477   -2.6337 C   0  0  0  0  0  0  0  0  0  0  0  0
    1.6002   -0.1169   -2.9634 N   0  0  0  0  0  0  0  0  0  0  0  0
    2.4486   -0.3978   -1.9580 C   0  0  0  0  0  0  0  0  0  0  0  0
    3.7809   -0.6585   -2.3091 N   0  0  0  0  0  0  0  0  0  0  0  0
   -1.5160    0.7749   -1.0198 C   0  0  0  0  0  0  0  0  0  0  0  0
   -2.2404    0.7249    0.1951 C   0  0  0  0  0  0  0  0  0  0  0  0
   -3.4515    1.2765    0.1019 N   0  0  0  0  0  0  0  0  0  0  0  0
   -3.5277    1.6780   -1.1847 N   0  0  0  0  0  0  0  0  0  0  0  0
   -2.3903    1.3965   -1.8931 C   0  0  0  0  0  0  0  0  0  0  0  0
   -4.7444    2.3558   -1.6336 C   0  0  0  0  0  0  0  0  0  0  0  0
   -4.5612    3.8764   -1.6639 C   0  0  0  0  0  0  0  0  0  0  0  0
   -3.7843    4.3553   -2.8929 C   0  0  0  0  0  0  0  0  0  0  0  0
   -3.9513    3.5145   -4.0785 N   0  0  0  0  0  0  0  0  0  0  0  0
   -5.2313    2.8211   -4.1018 C   0  0  0  0  0  0  0  0  0  0  0  0
   -5.3088    1.8073   -2.9573 C   0  0  0  0  0  0  0  0  0  0  0  0
    2.1555   -3.7470    1.5940 H   0  0  0  0  0  0  0  0  0  0  0  0
    1.2102   -2.9336    0.3501 H   0  0  0  0  0  0  0  0  0  0  0  0
    1.3191   -2.2248    1.9525 H   0  0  0  0  0  0  0  0  0  0  0  0
    3.4736   -2.4778   -0.1976 H   0  0  0  0  0  0  0  0  0  0  0  0
    7.3780   -3.3616    2.3196 H   0  0  0  0  0  0  0  0  0  0  0  0
    7.1294   -2.1212    4.4592 H   0  0  0  0  0  0  0  0  0  0  0  0
    0.4408    0.0665    0.7369 H   0  0  0  0  0  0  0  0  0  0  0  0
   -0.2941    0.4789   -3.4968 H   0  0  0  0  0  0  0  0  0  0  0  0
    4.3770   -0.0248   -1.7814 H   0  0  0  0  0  0  0  0  0  0  0  0
    4.0403   -1.6035   -2.0539 H   0  0  0  0  0  0  0  0  0  0  0  0
   -1.9335    0.3169    1.1527 H   0  0  0  0  0  0  0  0  0  0  0  0
   -2.3051    1.6768   -2.9360 H   0  0  0  0  0  0  0  0  0  0  0  0
   -5.4863    2.1268   -0.8555 H   0  0  0  0  0  0  0  0  0  0  0  0
   -4.0644    4.2355   -0.7524 H   0  0  0  0  0  0  0  0  0  0  0  0
   -5.5600    4.3422   -1.6782 H   0  0  0  0  0  0  0  0  0  0  0  0
   -2.7141    4.4192   -2.6607 H   0  0  0  0  0  0  0  0  0  0  0  0
   -4.1120    5.3780   -3.1248 H   0  0  0  0  0  0  0  0  0  0  0  0
   -3.8403    4.0851   -4.9193 H   0  0  0  0  0  0  0  0  0  0  0  0
   -5.3413    2.2848   -5.0540 H   0  0  0  0  0  0  0  0  0  0  0  0
   -6.0606    3.5399   -4.0528 H   0  0  0  0  0  0  0  0  0  0  0  0
   -6.3677    1.5537   -2.8140 H   0  0  0  0  0  0  0  0  0  0  0  0
   -4.8105    0.8735   -3.2457 H   0  0  0  0  0  0  0  0  0  0  0  0
  1  2  1  0
  2  3  1  0
  3  4  2  0
  4  5  1  0
  5  6  2  0
  6  7  1  0
  7  8  2  0
  8  9  1  0
  7 10  1  0
  4 11  1  0
  2 12  1  0
 12 13  1  0
 13 14  2  0
 14 15  1  0
 15 16  2  0
 16 17  1  0
 17 18  2  0
 18 19  1  0
 15 20  1  0
 20 21  1  0
 21 22  2  0
 22 23  1  0
 23 24  1  0
 23 25  1  0
 25 26  1  0
 26 27  1  0
 27 28  1  0
 28 29  1  0
 29 30  1  0
  8  3  1  0
 18 13  1  0
 24 20  2  0
 30 25  1  0
  1 31  1  0
  1 32  1  0
  1 33  1  0
  2 34  1  6
  5 35  1  0
  6 36  1  0
 14 37  1  0
 16 38  1  0
 19 39  1  0
 19 40  1  0
 21 41  1  0
 24 42  1  0
 25 43  1  0
 26 44  1  0
 26 45  1  0
 27 46  1  0
 27 47  1  0
 28 48  1  0
 29 49  1  0
 29 50  1  0
 30 51  1  0
 30 52  1  0
M  END
>  <energy_abs>  (109) 
41.616210983412444

>  <SMILES>  (109) 
C[C@H](c1c(ccc(c1Cl)F)Cl)Oc2cc(cnc2N)c3cnn(c3)C4CCNCC4

>  <cluster_no>  (109) 
109

>  <fda_drugs_id>  (109) 
KTEIFNKAUNYNJU-GFCCVEGCSA-N

>  <initial_conformation_id>  (109) 
195

>  <minimize_method>  (109) 
MMFF

$$$$

     RDKit          3D

 52 55  0  0  0  0  0  0  0  0999 V2000
    6.0122   -0.5004    0.5166 C   0  0  0  0  0  0  0  0  0  0  0  0
    4.4955   -0.4384    0.3115 C   0  0  2  0  0  0  0  0  0  0  0  0
    3.7660   -0.7538    1.6149 C   0  0  0  0  0  0  0  0  0  0  0  0
    3.2228    0.2921    2.3978 C   0  0  0  0  0  0  0  0  0  0  0  0
    2.5303    0.0340    3.5888 C   0  0  0  0  0  0  0  0  0  0  0  0
    2.3754   -1.2711    4.0397 C   0  0  0  0  0  0  0  0  0  0  0  0
    2.9235   -2.3109    3.3034 C   0  0  0  0  0  0  0  0  0  0  0  0
    3.6169   -2.0709    2.1087 C   0  0  0  0  0  0  0  0  0  0  0  0
    4.2841   -3.4576    1.3103 Cl  0  0  0  0  0  0  0  0  0  0  0  0
    2.7808   -3.5606    3.7711 F   0  0  0  0  0  0  0  0  0  0  0  0
    3.3830    1.9608    1.9621 Cl  0  0  0  0  0  0  0  0  0  0  0  0
    4.1670   -1.3331   -0.7624 O   0  0  0  0  0  0  0  0  0  0  0  0
    2.9147   -1.2836   -1.3213 C   0  0  0  0  0  0  0  0  0  0  0  0
    1.9948   -0.2446   -1.1744 C   0  0  0  0  0  0  0  0  0  0  0  0
    0.7392   -0.3301   -1.7858 C   0  0  0  0  0  0  0  0  0  0  0  0
    0.4817   -1.4674   -2.5440 C   0  0  0  0  0  0  0  0  0  0  0  0
    1.3544   -2.4870   -2.7189 N   0  0  0  0  0  0  0  0  0  0  0  0
    2.5509   -2.3864   -2.1153 C   0  0  0  0  0  0  0  0  0  0  0  0
    3.4446   -3.4637   -2.2752 N   0  0  0  0  0  0  0  0  0  0  0  0
   -0.2402    0.7297   -1.6277 C   0  0  0  0  0  0  0  0  0  0  0  0
   -0.0798    2.1024   -1.3262 C   0  0  0  0  0  0  0  0  0  0  0  0
   -1.2412    2.7546   -1.2440 N   0  0  0  0  0  0  0  0  0  0  0  0
   -2.1608    1.8036   -1.4907 N   0  0  0  0  0  0  0  0  0  0  0  0
   -1.6082    0.5725   -1.7229 C   0  0  0  0  0  0  0  0  0  0  0  0
   -3.5823    2.1257   -1.4959 C   0  0  0  0  0  0  0  0  0  0  0  0
   -3.9563    3.0449   -2.6624 C   0  0  0  0  0  0  0  0  0  0  0  0
   -5.4479    3.3626   -2.6312 C   0  0  0  0  0  0  0  0  0  0  0  0
   -5.8449    3.9370   -1.3473 N   0  0  0  0  0  0  0  0  0  0  0  0
   -5.5397    3.0508   -0.2259 C   0  0  0  0  0  0  0  0  0  0  0  0
   -4.0516    2.7216   -0.1647 C   0  0  0  0  0  0  0  0  0  0  0  0
    6.3535   -1.5090    0.7690 H   0  0  0  0  0  0  0  0  0  0  0  0
    6.3380    0.1801    1.3108 H   0  0  0  0  0  0  0  0  0  0  0  0
    6.5289   -0.2253   -0.4100 H   0  0  0  0  0  0  0  0  0  0  0  0
    4.2927    0.5770   -0.0407 H   0  0  0  0  0  0  0  0  0  0  0  0
    2.1116    0.8520    4.1729 H   0  0  0  0  0  0  0  0  0  0  0  0
    1.8428   -1.4845    4.9615 H   0  0  0  0  0  0  0  0  0  0  0  0
    2.2299    0.6340   -0.5878 H   0  0  0  0  0  0  0  0  0  0  0  0
   -0.4613   -1.6056   -3.0656 H   0  0  0  0  0  0  0  0  0  0  0  0
    4.3237   -3.0841   -2.6158 H   0  0  0  0  0  0  0  0  0  0  0  0
    3.6461   -3.8304   -1.3467 H   0  0  0  0  0  0  0  0  0  0  0  0
    0.8352    2.6585   -1.1662 H   0  0  0  0  0  0  0  0  0  0  0  0
   -2.2299   -0.2895   -1.9219 H   0  0  0  0  0  0  0  0  0  0  0  0
   -4.1038    1.1684   -1.6381 H   0  0  0  0  0  0  0  0  0  0  0  0
   -3.3811    3.9792   -2.6142 H   0  0  0  0  0  0  0  0  0  0  0  0
   -3.7007    2.5689   -3.6173 H   0  0  0  0  0  0  0  0  0  0  0  0
   -5.6792    4.0785   -3.4280 H   0  0  0  0  0  0  0  0  0  0  0  0
   -6.0341    2.4575   -2.8345 H   0  0  0  0  0  0  0  0  0  0  0  0
   -6.8440    4.1437   -1.3591 H   0  0  0  0  0  0  0  0  0  0  0  0
   -5.8367    3.5431    0.7066 H   0  0  0  0  0  0  0  0  0  0  0  0
   -6.1302    2.1297   -0.3034 H   0  0  0  0  0  0  0  0  0  0  0  0
   -3.4866    3.6334    0.0698 H   0  0  0  0  0  0  0  0  0  0  0  0
   -3.8620    2.0166    0.6543 H   0  0  0  0  0  0  0  0  0  0  0  0
  1  2  1  0
  2  3  1  0
  3  4  2  0
  4  5  1  0
  5  6  2  0
  6  7  1  0
  7  8  2  0
  8  9  1  0
  7 10  1  0
  4 11  1  0
  2 12  1  0
 12 13  1  0
 13 14  2  0
 14 15  1  0
 15 16  2  0
 16 17  1  0
 17 18  2  0
 18 19  1  0
 15 20  1  0
 20 21  1  0
 21 22  2  0
 22 23  1  0
 23 24  1  0
 23 25  1  0
 25 26  1  0
 26 27  1  0
 27 28  1  0
 28 29  1  0
 29 30  1  0
  8  3  1  0
 18 13  1  0
 24 20  2  0
 30 25  1  0
  1 31  1  0
  1 32  1  0
  1 33  1  0
  2 34  1  6
  5 35  1  0
  6 36  1  0
 14 37  1  0
 16 38  1  0
 19 39  1  0
 19 40  1  0
 21 41  1  0
 24 42  1  0
 25 43  1  0
 26 44  1  0
 26 45  1  0
 27 46  1  0
 27 47  1  0
 28 48  1  0
 29 49  1  0
 29 50  1  0
 30 51  1  0
 30 52  1  0
M  END
>  <energy_abs>  (110) 
31.905294021467988

>  <SMILES>  (110) 
C[C@H](c1c(ccc(c1Cl)F)Cl)Oc2cc(cnc2N)c3cnn(c3)C4CCNCC4

>  <cluster_no>  (110) 
110

>  <fda_drugs_id>  (110) 
KTEIFNKAUNYNJU-GFCCVEGCSA-N

>  <initial_conformation_id>  (110) 
194

>  <minimize_method>  (110) 
MMFF

$$$$

     RDKit          3D

 52 55  0  0  0  0  0  0  0  0999 V2000
    5.9708   -0.3795    0.2850 C   0  0  0  0  0  0  0  0  0  0  0  0
    4.4396   -0.4192    0.2607 C   0  0  2  0  0  0  0  0  0  0  0  0
    3.9052   -1.1720    1.4771 C   0  0  0  0  0  0  0  0  0  0  0  0
    3.9126   -2.5838    1.5665 C   0  0  0  0  0  0  0  0  0  0  0  0
    3.4010   -3.2459    2.6935 C   0  0  0  0  0  0  0  0  0  0  0  0
    2.8831   -2.5238    3.7620 C   0  0  0  0  0  0  0  0  0  0  0  0
    2.8881   -1.1391    3.7053 C   0  0  0  0  0  0  0  0  0  0  0  0
    3.3946   -0.4615    2.5885 C   0  0  0  0  0  0  0  0  0  0  0  0
    3.3751    1.2709    2.6481 Cl  0  0  0  0  0  0  0  0  0  0  0  0
    2.3970   -0.4592    4.7521 F   0  0  0  0  0  0  0  0  0  0  0  0
    4.5594   -3.6123    0.3325 Cl  0  0  0  0  0  0  0  0  0  0  0  0
    4.0419   -1.0000   -0.9880 O   0  0  0  0  0  0  0  0  0  0  0  0
    2.7341   -0.9133   -1.3902 C   0  0  0  0  0  0  0  0  0  0  0  0
    1.7746   -0.0477   -0.8630 C   0  0  0  0  0  0  0  0  0  0  0  0
    0.4632   -0.0725   -1.3506 C   0  0  0  0  0  0  0  0  0  0  0  0
    0.1841   -0.9822   -2.3660 C   0  0  0  0  0  0  0  0  0  0  0  0
    1.0903   -1.8288   -2.9110 N   0  0  0  0  0  0  0  0  0  0  0  0
    2.3419   -1.7825   -2.4206 C   0  0  0  0  0  0  0  0  0  0  0  0
    3.2635   -2.6327   -3.0352 N   0  0  0  0  0  0  0  0  0  0  0  0
   -0.5513    0.8121   -0.8057 C   0  0  0  0  0  0  0  0  0  0  0  0
   -0.6354    1.4641    0.4466 C   0  0  0  0  0  0  0  0  0  0  0  0
   -1.7338    2.2122    0.5692 N   0  0  0  0  0  0  0  0  0  0  0  0
   -2.3676    2.0483   -0.6078 N   0  0  0  0  0  0  0  0  0  0  0  0
   -1.6926    1.2214   -1.4647 C   0  0  0  0  0  0  0  0  0  0  0  0
   -3.6195    2.7611   -0.8482 C   0  0  0  0  0  0  0  0  0  0  0  0
   -4.7739    1.8090   -1.1918 C   0  0  0  0  0  0  0  0  0  0  0  0
   -5.8030    2.5080   -2.0680 C   0  0  0  0  0  0  0  0  0  0  0  0
   -5.2278    2.9159   -3.3461 N   0  0  0  0  0  0  0  0  0  0  0  0
   -3.8781    3.4699   -3.2708 C   0  0  0  0  0  0  0  0  0  0  0  0
   -3.4523    3.8954   -1.8708 C   0  0  0  0  0  0  0  0  0  0  0  0
    6.3453    0.1942   -0.5704 H   0  0  0  0  0  0  0  0  0  0  0  0
    6.4117   -1.3777    0.2008 H   0  0  0  0  0  0  0  0  0  0  0  0
    6.3452    0.0842    1.2035 H   0  0  0  0  0  0  0  0  0  0  0  0
    4.1247    0.6275    0.2480 H   0  0  0  0  0  0  0  0  0  0  0  0
    3.4090   -4.3334    2.7426 H   0  0  0  0  0  0  0  0  0  0  0  0
    2.4857   -3.0285    4.6374 H   0  0  0  0  0  0  0  0  0  0  0  0
    2.0312    0.6692   -0.0935 H   0  0  0  0  0  0  0  0  0  0  0  0
   -0.8114   -1.0740   -2.7915 H   0  0  0  0  0  0  0  0  0  0  0  0
    3.8191   -3.1218   -2.3412 H   0  0  0  0  0  0  0  0  0  0  0  0
    2.7542   -3.2455   -3.6628 H   0  0  0  0  0  0  0  0  0  0  0  0
    0.0553    1.4241    1.2794 H   0  0  0  0  0  0  0  0  0  0  0  0
   -2.0761    1.0068   -2.4524 H   0  0  0  0  0  0  0  0  0  0  0  0
   -3.8645    3.2402    0.1111 H   0  0  0  0  0  0  0  0  0  0  0  0
   -4.4199    0.9068   -1.7063 H   0  0  0  0  0  0  0  0  0  0  0  0
   -5.2469    1.4596   -0.2656 H   0  0  0  0  0  0  0  0  0  0  0  0
   -6.2128    3.3807   -1.5450 H   0  0  0  0  0  0  0  0  0  0  0  0
   -6.6421    1.8309   -2.2610 H   0  0  0  0  0  0  0  0  0  0  0  0
   -5.8565    3.5700   -3.8135 H   0  0  0  0  0  0  0  0  0  0  0  0
   -3.1793    2.7220   -3.6598 H   0  0  0  0  0  0  0  0  0  0  0  0
   -3.8067    4.3290   -3.9479 H   0  0  0  0  0  0  0  0  0  0  0  0
   -2.4215    4.2694   -1.8890 H   0  0  0  0  0  0  0  0  0  0  0  0
   -4.0791    4.7433   -1.5625 H   0  0  0  0  0  0  0  0  0  0  0  0
  1  2  1  0
  2  3  1  0
  3  4  2  0
  4  5  1  0
  5  6  2  0
  6  7  1  0
  7  8  2  0
  8  9  1  0
  7 10  1  0
  4 11  1  0
  2 12  1  0
 12 13  1  0
 13 14  2  0
 14 15  1  0
 15 16  2  0
 16 17  1  0
 17 18  2  0
 18 19  1  0
 15 20  1  0
 20 21  1  0
 21 22  2  0
 22 23  1  0
 23 24  1  0
 23 25  1  0
 25 26  1  0
 26 27  1  0
 27 28  1  0
 28 29  1  0
 29 30  1  0
  8  3  1  0
 18 13  1  0
 24 20  2  0
 30 25  1  0
  1 31  1  0
  1 32  1  0
  1 33  1  0
  2 34  1  6
  5 35  1  0
  6 36  1  0
 14 37  1  0
 16 38  1  0
 19 39  1  0
 19 40  1  0
 21 41  1  0
 24 42  1  0
 25 43  1  0
 26 44  1  0
 26 45  1  0
 27 46  1  0
 27 47  1  0
 28 48  1  0
 29 49  1  0
 29 50  1  0
 30 51  1  0
 30 52  1  0
M  END
>  <energy_abs>  (111) 
29.54844634249813

>  <SMILES>  (111) 
C[C@H](c1c(ccc(c1Cl)F)Cl)Oc2cc(cnc2N)c3cnn(c3)C4CCNCC4

>  <cluster_no>  (111) 
111

>  <fda_drugs_id>  (111) 
KTEIFNKAUNYNJU-GFCCVEGCSA-N

>  <initial_conformation_id>  (111) 
193

>  <minimize_method>  (111) 
MMFF

$$$$

     RDKit          3D

 52 55  0  0  0  0  0  0  0  0999 V2000
    1.9495   -0.8425    3.0300 C   0  0  0  0  0  0  0  0  0  0  0  0
    2.6936   -1.3386    1.7877 C   0  0  2  0  0  0  0  0  0  0  0  0
    4.0174   -2.0017    2.1629 C   0  0  0  0  0  0  0  0  0  0  0  0
    4.1502   -3.4103    2.1220 C   0  0  0  0  0  0  0  0  0  0  0  0
    5.3478   -4.0477    2.4745 C   0  0  0  0  0  0  0  0  0  0  0  0
    6.4423   -3.3016    2.8896 C   0  0  0  0  0  0  0  0  0  0  0  0
    6.3352   -1.9198    2.9481 C   0  0  0  0  0  0  0  0  0  0  0  0
    5.1467   -1.2650    2.5923 C   0  0  0  0  0  0  0  0  0  0  0  0
    5.1508    0.4627    2.7250 Cl  0  0  0  0  0  0  0  0  0  0  0  0
    7.4016   -1.2224    3.3638 F   0  0  0  0  0  0  0  0  0  0  0  0
    2.8573   -4.4574    1.6446 Cl  0  0  0  0  0  0  0  0  0  0  0  0
    2.9355   -0.2422    0.8861 O   0  0  0  0  0  0  0  0  0  0  0  0
    2.1321   -0.2974   -0.2233 C   0  0  0  0  0  0  0  0  0  0  0  0
    0.8920    0.3375   -0.1984 C   0  0  0  0  0  0  0  0  0  0  0  0
    0.0910    0.3139   -1.3394 C   0  0  0  0  0  0  0  0  0  0  0  0
    0.5955   -0.3572   -2.4522 C   0  0  0  0  0  0  0  0  0  0  0  0
    1.8083   -0.9627   -2.5045 N   0  0  0  0  0  0  0  0  0  0  0  0
    2.5765   -0.9077   -1.4042 C   0  0  0  0  0  0  0  0  0  0  0  0
    3.8421   -1.5094   -1.4689 N   0  0  0  0  0  0  0  0  0  0  0  0
   -1.2057    0.9616   -1.3534 C   0  0  0  0  0  0  0  0  0  0  0  0
   -2.1443    1.1757   -0.3174 C   0  0  0  0  0  0  0  0  0  0  0  0
   -3.2292    1.8341   -0.7305 N   0  0  0  0  0  0  0  0  0  0  0  0
   -2.9829    2.0672   -2.0346 N   0  0  0  0  0  0  0  0  0  0  0  0
   -1.7867    1.5539   -2.4562 C   0  0  0  0  0  0  0  0  0  0  0  0
   -3.9486    2.7980   -2.8482 C   0  0  0  0  0  0  0  0  0  0  0  0
   -4.2235    4.2118   -2.3037 C   0  0  0  0  0  0  0  0  0  0  0  0
   -5.7160    4.5267   -2.2554 C   0  0  0  0  0  0  0  0  0  0  0  0
   -6.3667    4.1976   -3.5198 N   0  0  0  0  0  0  0  0  0  0  0  0
   -6.2414    2.7836   -3.8801 C   0  0  0  0  0  0  0  0  0  0  0  0
   -5.2356    1.9919   -3.0477 C   0  0  0  0  0  0  0  0  0  0  0  0
    0.9658   -0.4484    2.7551 H   0  0  0  0  0  0  0  0  0  0  0  0
    2.4757   -0.0262    3.5335 H   0  0  0  0  0  0  0  0  0  0  0  0
    1.7995   -1.6528    3.7534 H   0  0  0  0  0  0  0  0  0  0  0  0
    2.0367   -2.0644    1.2978 H   0  0  0  0  0  0  0  0  0  0  0  0
    5.4283   -5.1334    2.4339 H   0  0  0  0  0  0  0  0  0  0  0  0
    7.3726   -3.7845    3.1740 H   0  0  0  0  0  0  0  0  0  0  0  0
    0.5779    0.8636    0.6970 H   0  0  0  0  0  0  0  0  0  0  0  0
    0.0232   -0.4406   -3.3726 H   0  0  0  0  0  0  0  0  0  0  0  0
    4.5311   -0.8245   -1.1650 H   0  0  0  0  0  0  0  0  0  0  0  0
    3.8762   -2.2811   -0.8139 H   0  0  0  0  0  0  0  0  0  0  0  0
   -2.0870    0.8725    0.7200 H   0  0  0  0  0  0  0  0  0  0  0  0
   -1.4551    1.6686   -3.4800 H   0  0  0  0  0  0  0  0  0  0  0  0
   -3.4729    2.9139   -3.8323 H   0  0  0  0  0  0  0  0  0  0  0  0
   -3.7995    4.3616   -1.3031 H   0  0  0  0  0  0  0  0  0  0  0  0
   -3.7179    4.9410   -2.9505 H   0  0  0  0  0  0  0  0  0  0  0  0
   -6.2009    3.9909   -1.4281 H   0  0  0  0  0  0  0  0  0  0  0  0
   -5.8566    5.5941   -2.0489 H   0  0  0  0  0  0  0  0  0  0  0  0
   -5.9815    4.7800   -4.2646 H   0  0  0  0  0  0  0  0  0  0  0  0
   -5.9628    2.7190   -4.9382 H   0  0  0  0  0  0  0  0  0  0  0  0
   -7.2256    2.3122   -3.7943 H   0  0  0  0  0  0  0  0  0  0  0  0
   -5.0152    1.0379   -3.5437 H   0  0  0  0  0  0  0  0  0  0  0  0
   -5.6834    1.7346   -2.0782 H   0  0  0  0  0  0  0  0  0  0  0  0
  1  2  1  0
  2  3  1  0
  3  4  2  0
  4  5  1  0
  5  6  2  0
  6  7  1  0
  7  8  2  0
  8  9  1  0
  7 10  1  0
  4 11  1  0
  2 12  1  0
 12 13  1  0
 13 14  2  0
 14 15  1  0
 15 16  2  0
 16 17  1  0
 17 18  2  0
 18 19  1  0
 15 20  1  0
 20 21  1  0
 21 22  2  0
 22 23  1  0
 23 24  1  0
 23 25  1  0
 25 26  1  0
 26 27  1  0
 27 28  1  0
 28 29  1  0
 29 30  1  0
  8  3  1  0
 18 13  1  0
 24 20  2  0
 30 25  1  0
  1 31  1  0
  1 32  1  0
  1 33  1  0
  2 34  1  6
  5 35  1  0
  6 36  1  0
 14 37  1  0
 16 38  1  0
 19 39  1  0
 19 40  1  0
 21 41  1  0
 24 42  1  0
 25 43  1  0
 26 44  1  0
 26 45  1  0
 27 46  1  0
 27 47  1  0
 28 48  1  0
 29 49  1  0
 29 50  1  0
 30 51  1  0
 30 52  1  0
M  END
>  <energy_abs>  (112) 
42.089635627337074

>  <SMILES>  (112) 
C[C@H](c1c(ccc(c1Cl)F)Cl)Oc2cc(cnc2N)c3cnn(c3)C4CCNCC4

>  <cluster_no>  (112) 
112

>  <fda_drugs_id>  (112) 
KTEIFNKAUNYNJU-GFCCVEGCSA-N

>  <initial_conformation_id>  (112) 
192

>  <minimize_method>  (112) 
MMFF

$$$$

     RDKit          3D

 52 55  0  0  0  0  0  0  0  0999 V2000
    5.4136   -0.0727    1.9188 C   0  0  0  0  0  0  0  0  0  0  0  0
    3.9377    0.3285    1.8293 C   0  0  2  0  0  0  0  0  0  0  0  0
    2.8690   -0.7650    1.9483 C   0  0  0  0  0  0  0  0  0  0  0  0
    1.6589   -0.4792    2.6333 C   0  0  0  0  0  0  0  0  0  0  0  0
    0.6487   -1.4413    2.7883 C   0  0  0  0  0  0  0  0  0  0  0  0
    0.8088   -2.7155    2.2579 C   0  0  0  0  0  0  0  0  0  0  0  0
    1.9682   -3.0125    1.5602 C   0  0  0  0  0  0  0  0  0  0  0  0
    2.9853   -2.0599    1.3881 C   0  0  0  0  0  0  0  0  0  0  0  0
    4.3250   -2.5783    0.4315 Cl  0  0  0  0  0  0  0  0  0  0  0  0
    2.0968   -4.2481    1.0491 F   0  0  0  0  0  0  0  0  0  0  0  0
    1.3048    1.0838    3.2983 Cl  0  0  0  0  0  0  0  0  0  0  0  0
    3.7306    1.3386    0.8054 O   0  0  0  0  0  0  0  0  0  0  0  0
    3.2932    0.8771   -0.4059 C   0  0  0  0  0  0  0  0  0  0  0  0
    1.9192    0.8280   -0.6437 C   0  0  0  0  0  0  0  0  0  0  0  0
    1.4405    0.3625   -1.8678 C   0  0  0  0  0  0  0  0  0  0  0  0
    2.3960    0.0183   -2.8213 C   0  0  0  0  0  0  0  0  0  0  0  0
    3.7397    0.1208   -2.6426 N   0  0  0  0  0  0  0  0  0  0  0  0
    4.1689    0.5646   -1.4473 C   0  0  0  0  0  0  0  0  0  0  0  0
    5.5532    0.6741   -1.3076 N   0  0  0  0  0  0  0  0  0  0  0  0
    0.0219    0.2212   -2.1297 C   0  0  0  0  0  0  0  0  0  0  0  0
   -0.6785   -0.6553   -2.9894 C   0  0  0  0  0  0  0  0  0  0  0  0
   -2.0025   -0.4908   -2.9264 N   0  0  0  0  0  0  0  0  0  0  0  0
   -2.1643    0.4937   -2.0233 N   0  0  0  0  0  0  0  0  0  0  0  0
   -0.9766    0.9587   -1.5244 C   0  0  0  0  0  0  0  0  0  0  0  0
   -3.5121    0.9222   -1.6617 C   0  0  0  0  0  0  0  0  0  0  0  0
   -3.8275    2.3326   -2.1821 C   0  0  0  0  0  0  0  0  0  0  0  0
   -3.9922    3.3278   -1.0374 C   0  0  0  0  0  0  0  0  0  0  0  0
   -5.0422    2.9211   -0.1098 N   0  0  0  0  0  0  0  0  0  0  0  0
   -5.0339    1.5065    0.2548 C   0  0  0  0  0  0  0  0  0  0  0  0
   -3.7651    0.7712   -0.1543 C   0  0  0  0  0  0  0  0  0  0  0  0
    5.5770   -0.8048    2.7134 H   0  0  0  0  0  0  0  0  0  0  0  0
    6.0298    0.8040    2.1342 H   0  0  0  0  0  0  0  0  0  0  0  0
    5.8098   -0.4708    0.9847 H   0  0  0  0  0  0  0  0  0  0  0  0
    3.8394    0.9029    2.7591 H   0  0  0  0  0  0  0  0  0  0  0  0
   -0.2684   -1.1995    3.3237 H   0  0  0  0  0  0  0  0  0  0  0  0
    0.0372   -3.4727    2.3735 H   0  0  0  0  0  0  0  0  0  0  0  0
    1.2330    1.1319    0.1433 H   0  0  0  0  0  0  0  0  0  0  0  0
    2.1118   -0.3493   -3.8039 H   0  0  0  0  0  0  0  0  0  0  0  0
    5.9678    0.4634   -2.2119 H   0  0  0  0  0  0  0  0  0  0  0  0
    5.8074    1.5937   -0.9579 H   0  0  0  0  0  0  0  0  0  0  0  0
   -0.2848   -1.4179   -3.6505 H   0  0  0  0  0  0  0  0  0  0  0  0
   -0.9459    1.7536   -0.7897 H   0  0  0  0  0  0  0  0  0  0  0  0
   -4.1864    0.2267   -2.1829 H   0  0  0  0  0  0  0  0  0  0  0  0
   -3.0574    2.6919   -2.8768 H   0  0  0  0  0  0  0  0  0  0  0  0
   -4.7623    2.2962   -2.7599 H   0  0  0  0  0  0  0  0  0  0  0  0
   -4.2442    4.3127   -1.4410 H   0  0  0  0  0  0  0  0  0  0  0  0
   -3.0438    3.4421   -0.5055 H   0  0  0  0  0  0  0  0  0  0  0  0
   -5.0116    3.5077    0.7248 H   0  0  0  0  0  0  0  0  0  0  0  0
   -5.9036    1.0196   -0.2066 H   0  0  0  0  0  0  0  0  0  0  0  0
   -5.1714    1.4156    1.3407 H   0  0  0  0  0  0  0  0  0  0  0  0
   -2.9253    1.1631    0.4342 H   0  0  0  0  0  0  0  0  0  0  0  0
   -3.8462   -0.2927    0.1035 H   0  0  0  0  0  0  0  0  0  0  0  0
  1  2  1  0
  2  3  1  0
  3  4  2  0
  4  5  1  0
  5  6  2  0
  6  7  1  0
  7  8  2  0
  8  9  1  0
  7 10  1  0
  4 11  1  0
  2 12  1  0
 12 13  1  0
 13 14  2  0
 14 15  1  0
 15 16  2  0
 16 17  1  0
 17 18  2  0
 18 19  1  0
 15 20  1  0
 20 21  1  0
 21 22  2  0
 22 23  1  0
 23 24  1  0
 23 25  1  0
 25 26  1  0
 26 27  1  0
 27 28  1  0
 28 29  1  0
 29 30  1  0
  8  3  1  0
 18 13  1  0
 24 20  2  0
 30 25  1  0
  1 31  1  0
  1 32  1  0
  1 33  1  0
  2 34  1  1
  5 35  1  0
  6 36  1  0
 14 37  1  0
 16 38  1  0
 19 39  1  0
 19 40  1  0
 21 41  1  0
 24 42  1  0
 25 43  1  0
 26 44  1  0
 26 45  1  0
 27 46  1  0
 27 47  1  0
 28 48  1  0
 29 49  1  0
 29 50  1  0
 30 51  1  0
 30 52  1  0
M  END
>  <energy_abs>  (113) 
38.66688170270295

>  <SMILES>  (113) 
C[C@H](c1c(ccc(c1Cl)F)Cl)Oc2cc(cnc2N)c3cnn(c3)C4CCNCC4

>  <cluster_no>  (113) 
113

>  <fda_drugs_id>  (113) 
KTEIFNKAUNYNJU-GFCCVEGCSA-N

>  <initial_conformation_id>  (113) 
191

>  <minimize_method>  (113) 
MMFF

$$$$

     RDKit          3D

 52 55  0  0  0  0  0  0  0  0999 V2000
    2.7757    0.4020    3.4227 C   0  0  0  0  0  0  0  0  0  0  0  0
    2.9178   -0.3541    2.0996 C   0  0  2  0  0  0  0  0  0  0  0  0
    3.9005   -1.5169    2.2083 C   0  0  0  0  0  0  0  0  0  0  0  0
    5.2997   -1.3273    2.2973 C   0  0  0  0  0  0  0  0  0  0  0  0
    6.1808   -2.4166    2.3855 C   0  0  0  0  0  0  0  0  0  0  0  0
    5.6946   -3.7179    2.3955 C   0  0  0  0  0  0  0  0  0  0  0  0
    4.3261   -3.9271    2.3255 C   0  0  0  0  0  0  0  0  0  0  0  0
    3.4314   -2.8518    2.2370 C   0  0  0  0  0  0  0  0  0  0  0  0
    1.7433   -3.2454    2.1800 Cl  0  0  0  0  0  0  0  0  0  0  0  0
    3.8763   -5.1911    2.3475 F   0  0  0  0  0  0  0  0  0  0  0  0
    6.0491    0.2323    2.3039 Cl  0  0  0  0  0  0  0  0  0  0  0  0
    3.3333    0.5743    1.0805 O   0  0  0  0  0  0  0  0  0  0  0  0
    2.6055    0.4694   -0.0770 C   0  0  0  0  0  0  0  0  0  0  0  0
    1.2609    0.8451   -0.1081 C   0  0  0  0  0  0  0  0  0  0  0  0
    0.5465    0.7567   -1.3038 C   0  0  0  0  0  0  0  0  0  0  0  0
    1.2443    0.2939   -2.4172 C   0  0  0  0  0  0  0  0  0  0  0  0
    2.5575   -0.0515   -2.4218 N   0  0  0  0  0  0  0  0  0  0  0  0
    3.2241    0.0523   -1.2589 C   0  0  0  0  0  0  0  0  0  0  0  0
    4.5874   -0.2209   -1.3180 N   0  0  0  0  0  0  0  0  0  0  0  0
   -0.8535    1.1335   -1.3681 C   0  0  0  0  0  0  0  0  0  0  0  0
   -1.8382    1.2098   -0.3554 C   0  0  0  0  0  0  0  0  0  0  0  0
   -3.0213    1.6271   -0.8116 N   0  0  0  0  0  0  0  0  0  0  0  0
   -2.8061    1.8206   -2.1258 N   0  0  0  0  0  0  0  0  0  0  0  0
   -1.5209    1.5416   -2.5055 C   0  0  0  0  0  0  0  0  0  0  0  0
   -3.8815    2.2966   -2.9913 C   0  0  0  0  0  0  0  0  0  0  0  0
   -4.5064    3.6079   -2.4865 C   0  0  0  0  0  0  0  0  0  0  0  0
   -5.8500    3.3538   -1.8138 C   0  0  0  0  0  0  0  0  0  0  0  0
   -6.8220    2.7253   -2.7093 N   0  0  0  0  0  0  0  0  0  0  0  0
   -6.2423    1.8127   -3.6928 C   0  0  0  0  0  0  0  0  0  0  0  0
   -4.9277    1.1982   -3.2297 C   0  0  0  0  0  0  0  0  0  0  0  0
    2.0102    1.1810    3.3270 H   0  0  0  0  0  0  0  0  0  0  0  0
    2.4853   -0.2697    4.2372 H   0  0  0  0  0  0  0  0  0  0  0  0
    3.6964    0.9163    3.7130 H   0  0  0  0  0  0  0  0  0  0  0  0
    1.9161   -0.7253    1.8637 H   0  0  0  0  0  0  0  0  0  0  0  0
    7.2552   -2.2505    2.4488 H   0  0  0  0  0  0  0  0  0  0  0  0
    6.3687   -4.5664    2.4635 H   0  0  0  0  0  0  0  0  0  0  0  0
    0.7938    1.2273    0.7941 H   0  0  0  0  0  0  0  0  0  0  0  0
    0.7602    0.1788   -3.3833 H   0  0  0  0  0  0  0  0  0  0  0  0
    4.7992   -0.5879   -2.2398 H   0  0  0  0  0  0  0  0  0  0  0  0
    4.8985   -0.8063   -0.5557 H   0  0  0  0  0  0  0  0  0  0  0  0
   -1.7451    0.9773    0.6976 H   0  0  0  0  0  0  0  0  0  0  0  0
   -1.2022    1.6701   -3.5306 H   0  0  0  0  0  0  0  0  0  0  0  0
   -3.3995    2.5238   -3.9524 H   0  0  0  0  0  0  0  0  0  0  0  0
   -4.6651    4.2794   -3.3415 H   0  0  0  0  0  0  0  0  0  0  0  0
   -3.8352    4.1406   -1.8021 H   0  0  0  0  0  0  0  0  0  0  0  0
   -5.7172    2.7187   -0.9306 H   0  0  0  0  0  0  0  0  0  0  0  0
   -6.2657    4.3000   -1.4497 H   0  0  0  0  0  0  0  0  0  0  0  0
   -7.3823    3.4328   -3.1833 H   0  0  0  0  0  0  0  0  0  0  0  0
   -6.0761    2.3534   -4.6333 H   0  0  0  0  0  0  0  0  0  0  0  0
   -6.9678    1.0209   -3.9081 H   0  0  0  0  0  0  0  0  0  0  0  0
   -5.1030    0.6090   -2.3200 H   0  0  0  0  0  0  0  0  0  0  0  0
   -4.5562    0.4915   -3.9820 H   0  0  0  0  0  0  0  0  0  0  0  0
  1  2  1  0
  2  3  1  0
  3  4  2  0
  4  5  1  0
  5  6  2  0
  6  7  1  0
  7  8  2  0
  8  9  1  0
  7 10  1  0
  4 11  1  0
  2 12  1  0
 12 13  1  0
 13 14  2  0
 14 15  1  0
 15 16  2  0
 16 17  1  0
 17 18  2  0
 18 19  1  0
 15 20  1  0
 20 21  1  0
 21 22  2  0
 22 23  1  0
 23 24  1  0
 23 25  1  0
 25 26  1  0
 26 27  1  0
 27 28  1  0
 28 29  1  0
 29 30  1  0
  8  3  1  0
 18 13  1  0
 24 20  2  0
 30 25  1  0
  1 31  1  0
  1 32  1  0
  1 33  1  0
  2 34  1  6
  5 35  1  0
  6 36  1  0
 14 37  1  0
 16 38  1  0
 19 39  1  0
 19 40  1  0
 21 41  1  0
 24 42  1  0
 25 43  1  0
 26 44  1  0
 26 45  1  0
 27 46  1  0
 27 47  1  0
 28 48  1  0
 29 49  1  0
 29 50  1  0
 30 51  1  0
 30 52  1  0
M  END
>  <energy_abs>  (114) 
32.236001425308785

>  <SMILES>  (114) 
C[C@H](c1c(ccc(c1Cl)F)Cl)Oc2cc(cnc2N)c3cnn(c3)C4CCNCC4

>  <cluster_no>  (114) 
114

>  <fda_drugs_id>  (114) 
KTEIFNKAUNYNJU-GFCCVEGCSA-N

>  <initial_conformation_id>  (114) 
190

>  <minimize_method>  (114) 
MMFF

$$$$

     RDKit          3D

 52 55  0  0  0  0  0  0  0  0999 V2000
    1.6823   -1.4087    2.5329 C   0  0  0  0  0  0  0  0  0  0  0  0
    2.7691   -1.6388    1.4748 C   0  0  2  0  0  0  0  0  0  0  0  0
    4.1288   -1.8718    2.1305 C   0  0  0  0  0  0  0  0  0  0  0  0
    4.8682   -0.8269    2.7351 C   0  0  0  0  0  0  0  0  0  0  0  0
    6.1154   -1.0646    3.3334 C   0  0  0  0  0  0  0  0  0  0  0  0
    6.6561   -2.3435    3.3514 C   0  0  0  0  0  0  0  0  0  0  0  0
    5.9459   -3.3843    2.7743 C   0  0  0  0  0  0  0  0  0  0  0  0
    4.6976   -3.1670    2.1744 C   0  0  0  0  0  0  0  0  0  0  0  0
    3.9026   -4.5596    1.5150 Cl  0  0  0  0  0  0  0  0  0  0  0  0
    6.4862   -4.6116    2.8073 F   0  0  0  0  0  0  0  0  0  0  0  0
    4.3176    0.8142    2.8082 Cl  0  0  0  0  0  0  0  0  0  0  0  0
    2.8814   -0.5130    0.5825 O   0  0  0  0  0  0  0  0  0  0  0  0
    1.9168   -0.4765   -0.3879 C   0  0  0  0  0  0  0  0  0  0  0  0
    0.9985    0.5713   -0.3343 C   0  0  0  0  0  0  0  0  0  0  0  0
    0.0142    0.6791   -1.3166 C   0  0  0  0  0  0  0  0  0  0  0  0
    0.0269   -0.2858   -2.3217 C   0  0  0  0  0  0  0  0  0  0  0  0
    0.9287   -1.2979   -2.4161 N   0  0  0  0  0  0  0  0  0  0  0  0
    1.8747   -1.3656   -1.4646 C   0  0  0  0  0  0  0  0  0  0  0  0
    2.8129   -2.3870   -1.6125 N   0  0  0  0  0  0  0  0  0  0  0  0
   -0.9530    1.7609   -1.2906 C   0  0  0  0  0  0  0  0  0  0  0  0
   -0.8978    3.0316   -0.6719 C   0  0  0  0  0  0  0  0  0  0  0  0
   -1.9984    3.7580   -0.8799 N   0  0  0  0  0  0  0  0  0  0  0  0
   -2.7792    2.9522   -1.6230 N   0  0  0  0  0  0  0  0  0  0  0  0
   -2.1940    1.7441   -1.8928 C   0  0  0  0  0  0  0  0  0  0  0  0
   -4.0832    3.4366   -2.0663 C   0  0  0  0  0  0  0  0  0  0  0  0
   -5.2318    2.5655   -1.5380 C   0  0  0  0  0  0  0  0  0  0  0  0
   -6.4499    2.6888   -2.4425 C   0  0  0  0  0  0  0  0  0  0  0  0
   -6.1747    2.1979   -3.7896 N   0  0  0  0  0  0  0  0  0  0  0  0
   -4.8357    2.4884   -4.2948 C   0  0  0  0  0  0  0  0  0  0  0  0
   -4.1415    3.6467   -3.5882 C   0  0  0  0  0  0  0  0  0  0  0  0
    1.6583   -2.2267    3.2612 H   0  0  0  0  0  0  0  0  0  0  0  0
    1.8194   -0.4716    3.0747 H   0  0  0  0  0  0  0  0  0  0  0  0
    0.6956   -1.3475    2.0640 H   0  0  0  0  0  0  0  0  0  0  0  0
    2.4715   -2.5204    0.9060 H   0  0  0  0  0  0  0  0  0  0  0  0
    6.6700   -0.2469    3.7888 H   0  0  0  0  0  0  0  0  0  0  0  0
    7.6194   -2.5345    3.8108 H   0  0  0  0  0  0  0  0  0  0  0  0
    1.0608    1.2813    0.4843 H   0  0  0  0  0  0  0  0  0  0  0  0
   -0.6979   -0.2717   -3.1313 H   0  0  0  0  0  0  0  0  0  0  0  0
    3.7547   -2.0137   -1.5695 H   0  0  0  0  0  0  0  0  0  0  0  0
    2.6177   -2.8464   -2.4977 H   0  0  0  0  0  0  0  0  0  0  0  0
   -0.0976    3.4634   -0.0822 H   0  0  0  0  0  0  0  0  0  0  0  0
   -2.7101    0.9899   -2.4689 H   0  0  0  0  0  0  0  0  0  0  0  0
   -4.1888    4.4329   -1.6117 H   0  0  0  0  0  0  0  0  0  0  0  0
   -5.4880    2.8771   -0.5183 H   0  0  0  0  0  0  0  0  0  0  0  0
   -4.9425    1.5088   -1.4680 H   0  0  0  0  0  0  0  0  0  0  0  0
   -7.2819    2.1142   -2.0230 H   0  0  0  0  0  0  0  0  0  0  0  0
   -6.7763    3.7356   -2.4876 H   0  0  0  0  0  0  0  0  0  0  0  0
   -6.8855    2.5453   -4.4338 H   0  0  0  0  0  0  0  0  0  0  0  0
   -4.8973    2.6997   -5.3686 H   0  0  0  0  0  0  0  0  0  0  0  0
   -4.2286    1.5804   -4.2002 H   0  0  0  0  0  0  0  0  0  0  0  0
   -4.7063    4.5649   -3.7948 H   0  0  0  0  0  0  0  0  0  0  0  0
   -3.1410    3.7976   -4.0122 H   0  0  0  0  0  0  0  0  0  0  0  0
  1  2  1  0
  2  3  1  0
  3  4  2  0
  4  5  1  0
  5  6  2  0
  6  7  1  0
  7  8  2  0
  8  9  1  0
  7 10  1  0
  4 11  1  0
  2 12  1  0
 12 13  1  0
 13 14  2  0
 14 15  1  0
 15 16  2  0
 16 17  1  0
 17 18  2  0
 18 19  1  0
 15 20  1  0
 20 21  1  0
 21 22  2  0
 22 23  1  0
 23 24  1  0
 23 25  1  0
 25 26  1  0
 26 27  1  0
 27 28  1  0
 28 29  1  0
 29 30  1  0
  8  3  1  0
 18 13  1  0
 24 20  2  0
 30 25  1  0
  1 31  1  0
  1 32  1  0
  1 33  1  0
  2 34  1  6
  5 35  1  0
  6 36  1  0
 14 37  1  0
 16 38  1  0
 19 39  1  0
 19 40  1  0
 21 41  1  0
 24 42  1  0
 25 43  1  0
 26 44  1  0
 26 45  1  0
 27 46  1  0
 27 47  1  0
 28 48  1  0
 29 49  1  0
 29 50  1  0
 30 51  1  0
 30 52  1  0
M  END
>  <energy_abs>  (115) 
29.72511243989056

>  <SMILES>  (115) 
C[C@H](c1c(ccc(c1Cl)F)Cl)Oc2cc(cnc2N)c3cnn(c3)C4CCNCC4

>  <cluster_no>  (115) 
115

>  <fda_drugs_id>  (115) 
KTEIFNKAUNYNJU-GFCCVEGCSA-N

>  <initial_conformation_id>  (115) 
189

>  <minimize_method>  (115) 
MMFF

$$$$

     RDKit          3D

 52 55  0  0  0  0  0  0  0  0999 V2000
    5.4333    0.7072    1.2199 C   0  0  0  0  0  0  0  0  0  0  0  0
    4.0763    0.0519    0.9406 C   0  0  2  0  0  0  0  0  0  0  0  0
    3.7723   -1.0860    1.9123 C   0  0  0  0  0  0  0  0  0  0  0  0
    2.7538   -0.9440    2.8850 C   0  0  0  0  0  0  0  0  0  0  0  0
    2.4537   -1.9719    3.7918 C   0  0  0  0  0  0  0  0  0  0  0  0
    3.1551   -3.1688    3.7529 C   0  0  0  0  0  0  0  0  0  0  0  0
    4.1578   -3.3324    2.8083 C   0  0  0  0  0  0  0  0  0  0  0  0
    4.4727   -2.3160    1.8949 C   0  0  0  0  0  0  0  0  0  0  0  0
    5.7258   -2.6711    0.7539 Cl  0  0  0  0  0  0  0  0  0  0  0  0
    4.8123   -4.5015    2.7799 F   0  0  0  0  0  0  0  0  0  0  0  0
    1.7875    0.4876    3.0353 Cl  0  0  0  0  0  0  0  0  0  0  0  0
    4.0617   -0.3842   -0.4309 O   0  0  0  0  0  0  0  0  0  0  0  0
    2.8137   -0.5107   -0.9900 C   0  0  0  0  0  0  0  0  0  0  0  0
    1.8843    0.5318   -0.9951 C   0  0  0  0  0  0  0  0  0  0  0  0
    0.6336    0.3494   -1.5881 C   0  0  0  0  0  0  0  0  0  0  0  0
    0.3880   -0.8898   -2.1697 C   0  0  0  0  0  0  0  0  0  0  0  0
    1.2805   -1.9110   -2.2117 N   0  0  0  0  0  0  0  0  0  0  0  0
    2.4829   -1.7045   -1.6426 C   0  0  0  0  0  0  0  0  0  0  0  0
    3.4147   -2.7243   -1.8140 N   0  0  0  0  0  0  0  0  0  0  0  0
   -0.3420    1.4231   -1.6112 C   0  0  0  0  0  0  0  0  0  0  0  0
   -0.1687    2.8250   -1.5604 C   0  0  0  0  0  0  0  0  0  0  0  0
   -1.3229    3.4932   -1.5980 N   0  0  0  0  0  0  0  0  0  0  0  0
   -2.2513    2.5224   -1.6738 N   0  0  0  0  0  0  0  0  0  0  0  0
   -1.7102    1.2633   -1.6867 C   0  0  0  0  0  0  0  0  0  0  0  0
   -3.6605    2.8849   -1.7648 C   0  0  0  0  0  0  0  0  0  0  0  0
   -4.4785    2.3697   -0.5681 C   0  0  0  0  0  0  0  0  0  0  0  0
   -5.9097    2.0007   -0.9611 C   0  0  0  0  0  0  0  0  0  0  0  0
   -6.4352    2.9572   -1.9231 N   0  0  0  0  0  0  0  0  0  0  0  0
   -5.7209    2.9343   -3.2004 C   0  0  0  0  0  0  0  0  0  0  0  0
   -4.2754    2.4472   -3.0962 C   0  0  0  0  0  0  0  0  0  0  0  0
    6.2749    0.0367    1.0209 H   0  0  0  0  0  0  0  0  0  0  0  0
    5.5715    1.5749    0.5586 H   0  0  0  0  0  0  0  0  0  0  0  0
    5.5087    1.0490    2.2573 H   0  0  0  0  0  0  0  0  0  0  0  0
    3.3615    0.8629    1.0629 H   0  0  0  0  0  0  0  0  0  0  0  0
    1.6615   -1.8435    4.5273 H   0  0  0  0  0  0  0  0  0  0  0  0
    2.9327   -3.9741    4.4460 H   0  0  0  0  0  0  0  0  0  0  0  0
    2.1394    1.4894   -0.5511 H   0  0  0  0  0  0  0  0  0  0  0  0
   -0.5576   -1.1118   -2.6619 H   0  0  0  0  0  0  0  0  0  0  0  0
    3.9488   -2.9203   -0.9751 H   0  0  0  0  0  0  0  0  0  0  0  0
    2.9497   -3.5291   -2.2173 H   0  0  0  0  0  0  0  0  0  0  0  0
    0.7505    3.3930   -1.5072 H   0  0  0  0  0  0  0  0  0  0  0  0
   -2.3381    0.3850   -1.7368 H   0  0  0  0  0  0  0  0  0  0  0  0
   -3.6897    3.9824   -1.7342 H   0  0  0  0  0  0  0  0  0  0  0  0
   -4.0124    1.4965   -0.0938 H   0  0  0  0  0  0  0  0  0  0  0  0
   -4.4972    3.1549    0.2035 H   0  0  0  0  0  0  0  0  0  0  0  0
   -5.9534    0.9819   -1.3679 H   0  0  0  0  0  0  0  0  0  0  0  0
   -6.5360    2.0039   -0.0632 H   0  0  0  0  0  0  0  0  0  0  0  0
   -7.4304    2.8029   -2.0812 H   0  0  0  0  0  0  0  0  0  0  0  0
   -6.2588    2.3007   -3.9157 H   0  0  0  0  0  0  0  0  0  0  0  0
   -5.7369    3.9496   -3.6079 H   0  0  0  0  0  0  0  0  0  0  0  0
   -4.2538    1.3526   -3.1780 H   0  0  0  0  0  0  0  0  0  0  0  0
   -3.6942    2.8340   -3.9415 H   0  0  0  0  0  0  0  0  0  0  0  0
  1  2  1  0
  2  3  1  0
  3  4  2  0
  4  5  1  0
  5  6  2  0
  6  7  1  0
  7  8  2  0
  8  9  1  0
  7 10  1  0
  4 11  1  0
  2 12  1  0
 12 13  1  0
 13 14  2  0
 14 15  1  0
 15 16  2  0
 16 17  1  0
 17 18  2  0
 18 19  1  0
 15 20  1  0
 20 21  1  0
 21 22  2  0
 22 23  1  0
 23 24  1  0
 23 25  1  0
 25 26  1  0
 26 27  1  0
 27 28  1  0
 28 29  1  0
 29 30  1  0
  8  3  1  0
 18 13  1  0
 24 20  2  0
 30 25  1  0
  1 31  1  0
  1 32  1  0
  1 33  1  0
  2 34  1  6
  5 35  1  0
  6 36  1  0
 14 37  1  0
 16 38  1  0
 19 39  1  0
 19 40  1  0
 21 41  1  0
 24 42  1  0
 25 43  1  0
 26 44  1  0
 26 45  1  0
 27 46  1  0
 27 47  1  0
 28 48  1  0
 29 49  1  0
 29 50  1  0
 30 51  1  0
 30 52  1  0
M  END
>  <energy_abs>  (116) 
31.645087680450747

>  <SMILES>  (116) 
C[C@H](c1c(ccc(c1Cl)F)Cl)Oc2cc(cnc2N)c3cnn(c3)C4CCNCC4

>  <cluster_no>  (116) 
116

>  <fda_drugs_id>  (116) 
KTEIFNKAUNYNJU-GFCCVEGCSA-N

>  <initial_conformation_id>  (116) 
188

>  <minimize_method>  (116) 
MMFF

$$$$

     RDKit          3D

 52 55  0  0  0  0  0  0  0  0999 V2000
    1.9297   -0.8697    2.6844 C   0  0  0  0  0  0  0  0  0  0  0  0
    2.7271   -1.7081    1.6751 C   0  0  2  0  0  0  0  0  0  0  0  0
    4.1539   -1.9495    2.1631 C   0  0  0  0  0  0  0  0  0  0  0  0
    4.5578   -3.2296    2.6160 C   0  0  0  0  0  0  0  0  0  0  0  0
    5.8633   -3.4680    3.0707 C   0  0  0  0  0  0  0  0  0  0  0  0
    6.8040   -2.4429    3.0810 C   0  0  0  0  0  0  0  0  0  0  0  0
    6.4305   -1.1792    2.6476 C   0  0  0  0  0  0  0  0  0  0  0  0
    5.1291   -0.9213    2.1924 C   0  0  0  0  0  0  0  0  0  0  0  0
    4.8070    0.6970    1.6609 Cl  0  0  0  0  0  0  0  0  0  0  0  0
    7.3551   -0.2042    2.6692 F   0  0  0  0  0  0  0  0  0  0  0  0
    3.4801   -4.5837    2.6728 Cl  0  0  0  0  0  0  0  0  0  0  0  0
    2.7997   -1.1003    0.3718 O   0  0  0  0  0  0  0  0  0  0  0  0
    1.6397   -1.2175   -0.3471 C   0  0  0  0  0  0  0  0  0  0  0  0
    0.8291   -0.0878   -0.4522 C   0  0  0  0  0  0  0  0  0  0  0  0
   -0.3427   -0.1443   -1.2063 C   0  0  0  0  0  0  0  0  0  0  0  0
   -0.6227   -1.3578   -1.8308 C   0  0  0  0  0  0  0  0  0  0  0  0
    0.1691   -2.4604   -1.7729 N   0  0  0  0  0  0  0  0  0  0  0  0
    1.3064   -2.3740   -1.0632 C   0  0  0  0  0  0  0  0  0  0  0  0
    2.1716   -3.4779   -1.1148 N   0  0  0  0  0  0  0  0  0  0  0  0
   -1.1993    1.0182   -1.3410 C   0  0  0  0  0  0  0  0  0  0  0  0
   -0.9151    2.3933   -1.1751 C   0  0  0  0  0  0  0  0  0  0  0  0
   -1.9735    3.1762   -1.3933 N   0  0  0  0  0  0  0  0  0  0  0  0
   -2.9542    2.3105   -1.7065 N   0  0  0  0  0  0  0  0  0  0  0  0
   -2.5375    1.0033   -1.6760 C   0  0  0  0  0  0  0  0  0  0  0  0
   -4.2926    2.7748   -2.0769 C   0  0  0  0  0  0  0  0  0  0  0  0
   -4.5158    2.5765   -3.5859 C   0  0  0  0  0  0  0  0  0  0  0  0
   -5.5243    3.5790   -4.1368 C   0  0  0  0  0  0  0  0  0  0  0  0
   -5.0964    4.9649   -3.9522 N   0  0  0  0  0  0  0  0  0  0  0  0
   -4.2867    5.1992   -2.7528 C   0  0  0  0  0  0  0  0  0  0  0  0
   -4.6074    4.2158   -1.6325 C   0  0  0  0  0  0  0  0  0  0  0  0
    1.9784   -1.3156    3.6839 H   0  0  0  0  0  0  0  0  0  0  0  0
    2.2778    0.1649    2.7541 H   0  0  0  0  0  0  0  0  0  0  0  0
    0.8762   -0.8169    2.3920 H   0  0  0  0  0  0  0  0  0  0  0  0
    2.2039   -2.6634    1.5759 H   0  0  0  0  0  0  0  0  0  0  0  0
    6.1403   -4.4532    3.4424 H   0  0  0  0  0  0  0  0  0  0  0  0
    7.8165   -2.6155    3.4324 H   0  0  0  0  0  0  0  0  0  0  0  0
    1.1260    0.8221    0.0625 H   0  0  0  0  0  0  0  0  0  0  0  0
   -1.5104   -1.4936   -2.4426 H   0  0  0  0  0  0  0  0  0  0  0  0
    3.0706   -3.1537   -1.4625 H   0  0  0  0  0  0  0  0  0  0  0  0
    2.3231   -3.8595   -0.1885 H   0  0  0  0  0  0  0  0  0  0  0  0
    0.0256    2.8588   -0.9124 H   0  0  0  0  0  0  0  0  0  0  0  0
   -3.2259    0.2024   -1.8970 H   0  0  0  0  0  0  0  0  0  0  0  0
   -4.9763    2.1139   -1.5240 H   0  0  0  0  0  0  0  0  0  0  0  0
   -3.5702    2.6776   -4.1388 H   0  0  0  0  0  0  0  0  0  0  0  0
   -4.8726    1.5516   -3.7705 H   0  0  0  0  0  0  0  0  0  0  0  0
   -5.6667    3.4067   -5.2069 H   0  0  0  0  0  0  0  0  0  0  0  0
   -6.4978    3.4241   -3.6549 H   0  0  0  0  0  0  0  0  0  0  0  0
   -5.9096    5.5930   -3.9723 H   0  0  0  0  0  0  0  0  0  0  0  0
   -3.2266    5.1240   -3.0256 H   0  0  0  0  0  0  0  0  0  0  0  0
   -4.4468    6.2304   -2.4103 H   0  0  0  0  0  0  0  0  0  0  0  0
   -4.0722    4.4877   -0.7136 H   0  0  0  0  0  0  0  0  0  0  0  0
   -5.6749    4.2930   -1.3907 H   0  0  0  0  0  0  0  0  0  0  0  0
  1  2  1  0
  2  3  1  0
  3  4  2  0
  4  5  1  0
  5  6  2  0
  6  7  1  0
  7  8  2  0
  8  9  1  0
  7 10  1  0
  4 11  1  0
  2 12  1  0
 12 13  1  0
 13 14  2  0
 14 15  1  0
 15 16  2  0
 16 17  1  0
 17 18  2  0
 18 19  1  0
 15 20  1  0
 20 21  1  0
 21 22  2  0
 22 23  1  0
 23 24  1  0
 23 25  1  0
 25 26  1  0
 26 27  1  0
 27 28  1  0
 28 29  1  0
 29 30  1  0
  8  3  1  0
 18 13  1  0
 24 20  2  0
 30 25  1  0
  1 31  1  0
  1 32  1  0
  1 33  1  0
  2 34  1  6
  5 35  1  0
  6 36  1  0
 14 37  1  0
 16 38  1  0
 19 39  1  0
 19 40  1  0
 21 41  1  0
 24 42  1  0
 25 43  1  0
 26 44  1  0
 26 45  1  0
 27 46  1  0
 27 47  1  0
 28 48  1  0
 29 49  1  0
 29 50  1  0
 30 51  1  0
 30 52  1  0
M  END
>  <energy_abs>  (117) 
42.57802742911121

>  <SMILES>  (117) 
C[C@H](c1c(ccc(c1Cl)F)Cl)Oc2cc(cnc2N)c3cnn(c3)C4CCNCC4

>  <cluster_no>  (117) 
117

>  <fda_drugs_id>  (117) 
KTEIFNKAUNYNJU-GFCCVEGCSA-N

>  <initial_conformation_id>  (117) 
187

>  <minimize_method>  (117) 
MMFF

$$$$

     RDKit          3D

 52 55  0  0  0  0  0  0  0  0999 V2000
    4.8852    0.5842    0.2100 C   0  0  0  0  0  0  0  0  0  0  0  0
    3.8819   -0.4478    0.7387 C   0  0  2  0  0  0  0  0  0  0  0  0
    4.6022   -1.5491    1.5150 C   0  0  0  0  0  0  0  0  0  0  0  0
    5.3058   -2.6018    0.8788 C   0  0  0  0  0  0  0  0  0  0  0  0
    5.9406   -3.6126    1.6220 C   0  0  0  0  0  0  0  0  0  0  0  0
    5.8978   -3.5982    3.0106 C   0  0  0  0  0  0  0  0  0  0  0  0
    5.2329   -2.5624    3.6558 C   0  0  0  0  0  0  0  0  0  0  0  0
    4.5945   -1.5440    2.9305 C   0  0  0  0  0  0  0  0  0  0  0  0
    3.8338   -0.2819    3.8517 Cl  0  0  0  0  0  0  0  0  0  0  0  0
    5.2305   -2.5536    4.9995 F   0  0  0  0  0  0  0  0  0  0  0  0
    5.4616   -2.7407   -0.8426 Cl  0  0  0  0  0  0  0  0  0  0  0  0
    3.1440   -0.9606   -0.3898 O   0  0  0  0  0  0  0  0  0  0  0  0
    1.7902   -0.9408   -0.1742 C   0  0  0  0  0  0  0  0  0  0  0  0
    1.0413    0.0451   -0.8189 C   0  0  0  0  0  0  0  0  0  0  0  0
   -0.3473    0.0774   -0.6566 C   0  0  0  0  0  0  0  0  0  0  0  0
   -0.8984   -0.9087    0.1642 C   0  0  0  0  0  0  0  0  0  0  0  0
   -0.1958   -1.8953    0.7827 N   0  0  0  0  0  0  0  0  0  0  0  0
    1.1338   -1.9125    0.5879 C   0  0  0  0  0  0  0  0  0  0  0  0
    1.8231   -2.9579    1.2050 N   0  0  0  0  0  0  0  0  0  0  0  0
   -1.1590    1.0857   -1.3226 C   0  0  0  0  0  0  0  0  0  0  0  0
   -0.7846    2.2036   -2.1083 C   0  0  0  0  0  0  0  0  0  0  0  0
   -1.8323    2.8856   -2.5796 N   0  0  0  0  0  0  0  0  0  0  0  0
   -2.8956    2.2173   -2.0928 N   0  0  0  0  0  0  0  0  0  0  0  0
   -2.5403    1.1260   -1.3441 C   0  0  0  0  0  0  0  0  0  0  0  0
   -4.2523    2.6398   -2.4223 C   0  0  0  0  0  0  0  0  0  0  0  0
   -4.5288    4.0772   -1.9618 C   0  0  0  0  0  0  0  0  0  0  0  0
   -5.8310    4.5865   -2.5716 C   0  0  0  0  0  0  0  0  0  0  0  0
   -5.8800    4.5175   -4.0348 N   0  0  0  0  0  0  0  0  0  0  0  0
   -4.7962    3.7369   -4.6348 C   0  0  0  0  0  0  0  0  0  0  0  0
   -4.5727    2.4177   -3.9089 C   0  0  0  0  0  0  0  0  0  0  0  0
    4.3538    1.3962   -0.3037 H   0  0  0  0  0  0  0  0  0  0  0  0
    5.5727    0.1576   -0.5276 H   0  0  0  0  0  0  0  0  0  0  0  0
    5.4813    1.0137    1.0242 H   0  0  0  0  0  0  0  0  0  0  0  0
    3.1947    0.1055    1.3839 H   0  0  0  0  0  0  0  0  0  0  0  0
    6.4739   -4.4171    1.1134 H   0  0  0  0  0  0  0  0  0  0  0  0
    6.3859   -4.3728    3.5917 H   0  0  0  0  0  0  0  0  0  0  0  0
    1.5575    0.7691   -1.4444 H   0  0  0  0  0  0  0  0  0  0  0  0
   -1.9666   -0.9568    0.3624 H   0  0  0  0  0  0  0  0  0  0  0  0
    1.1228   -3.5722    1.6173 H   0  0  0  0  0  0  0  0  0  0  0  0
    2.4026   -3.4374    0.5202 H   0  0  0  0  0  0  0  0  0  0  0  0
    0.2099    2.5493   -2.3634 H   0  0  0  0  0  0  0  0  0  0  0  0
   -3.2965    0.4839   -0.9175 H   0  0  0  0  0  0  0  0  0  0  0  0
   -4.9103    1.9742   -1.8482 H   0  0  0  0  0  0  0  0  0  0  0  0
   -3.7094    4.7545   -2.2397 H   0  0  0  0  0  0  0  0  0  0  0  0
   -4.5902    4.1100   -0.8670 H   0  0  0  0  0  0  0  0  0  0  0  0
   -6.6671    4.0040   -2.1586 H   0  0  0  0  0  0  0  0  0  0  0  0
   -5.9973    5.6257   -2.2660 H   0  0  0  0  0  0  0  0  0  0  0  0
   -6.7905    4.1487   -4.3324 H   0  0  0  0  0  0  0  0  0  0  0  0
   -5.0445    3.5420   -5.6851 H   0  0  0  0  0  0  0  0  0  0  0  0
   -3.8733    4.3310   -4.6450 H   0  0  0  0  0  0  0  0  0  0  0  0
   -5.4843    1.8129   -3.9885 H   0  0  0  0  0  0  0  0  0  0  0  0
   -3.7866    1.8466   -4.4161 H   0  0  0  0  0  0  0  0  0  0  0  0
  1  2  1  0
  2  3  1  0
  3  4  2  0
  4  5  1  0
  5  6  2  0
  6  7  1  0
  7  8  2  0
  8  9  1  0
  7 10  1  0
  4 11  1  0
  2 12  1  0
 12 13  1  0
 13 14  2  0
 14 15  1  0
 15 16  2  0
 16 17  1  0
 17 18  2  0
 18 19  1  0
 15 20  1  0
 20 21  1  0
 21 22  2  0
 22 23  1  0
 23 24  1  0
 23 25  1  0
 25 26  1  0
 26 27  1  0
 27 28  1  0
 28 29  1  0
 29 30  1  0
  8  3  1  0
 18 13  1  0
 24 20  2  0
 30 25  1  0
  1 31  1  0
  1 32  1  0
  1 33  1  0
  2 34  1  1
  5 35  1  0
  6 36  1  0
 14 37  1  0
 16 38  1  0
 19 39  1  0
 19 40  1  0
 21 41  1  0
 24 42  1  0
 25 43  1  0
 26 44  1  0
 26 45  1  0
 27 46  1  0
 27 47  1  0
 28 48  1  0
 29 49  1  0
 29 50  1  0
 30 51  1  0
 30 52  1  0
M  END
>  <energy_abs>  (118) 
29.900114728764986

>  <SMILES>  (118) 
C[C@H](c1c(ccc(c1Cl)F)Cl)Oc2cc(cnc2N)c3cnn(c3)C4CCNCC4

>  <cluster_no>  (118) 
118

>  <fda_drugs_id>  (118) 
KTEIFNKAUNYNJU-GFCCVEGCSA-N

>  <initial_conformation_id>  (118) 
186

>  <minimize_method>  (118) 
MMFF

$$$$

     RDKit          3D

 52 55  0  0  0  0  0  0  0  0999 V2000
    3.2525   -2.4829   -0.7198 C   0  0  0  0  0  0  0  0  0  0  0  0
    3.2476   -1.4353    0.3965 C   0  0  2  0  0  0  0  0  0  0  0  0
    4.5387   -1.5178    1.2117 C   0  0  0  0  0  0  0  0  0  0  0  0
    5.5865   -0.5942    0.9819 C   0  0  0  0  0  0  0  0  0  0  0  0
    6.7786   -0.6363    1.7195 C   0  0  0  0  0  0  0  0  0  0  0  0
    6.9645   -1.6065    2.6957 C   0  0  0  0  0  0  0  0  0  0  0  0
    5.9627   -2.5388    2.9213 C   0  0  0  0  0  0  0  0  0  0  0  0
    4.7645   -2.5126    2.1930 C   0  0  0  0  0  0  0  0  0  0  0  0
    3.6200   -3.7663    2.5488 Cl  0  0  0  0  0  0  0  0  0  0  0  0
    6.1740   -3.4779    3.8561 F   0  0  0  0  0  0  0  0  0  0  0  0
    5.4975    0.6358   -0.2354 Cl  0  0  0  0  0  0  0  0  0  0  0  0
    2.1297   -1.6098    1.2734 O   0  0  0  0  0  0  0  0  0  0  0  0
    0.8853   -1.1590    0.9233 C   0  0  0  0  0  0  0  0  0  0  0  0
    0.5604   -0.4434   -0.2298 C   0  0  0  0  0  0  0  0  0  0  0  0
   -0.7607   -0.0384   -0.4518 C   0  0  0  0  0  0  0  0  0  0  0  0
   -1.7009   -0.3831    0.5136 C   0  0  0  0  0  0  0  0  0  0  0  0
   -1.4216   -1.0752    1.6422 N   0  0  0  0  0  0  0  0  0  0  0  0
   -0.1464   -1.4536    1.8347 C   0  0  0  0  0  0  0  0  0  0  0  0
    0.1396   -2.1721    3.0125 N   0  0  0  0  0  0  0  0  0  0  0  0
   -1.1223    0.7012   -1.6464 C   0  0  0  0  0  0  0  0  0  0  0  0
   -0.5434    0.7161   -2.9356 C   0  0  0  0  0  0  0  0  0  0  0  0
   -1.1614    1.5525   -3.7719 N   0  0  0  0  0  0  0  0  0  0  0  0
   -2.1454    2.0866   -3.0225 N   0  0  0  0  0  0  0  0  0  0  0  0
   -2.1610    1.6045   -1.7415 C   0  0  0  0  0  0  0  0  0  0  0  0
   -3.0569    3.0545   -3.6263 C   0  0  0  0  0  0  0  0  0  0  0  0
   -4.4897    2.5110   -3.7467 C   0  0  0  0  0  0  0  0  0  0  0  0
   -5.3950    3.0518   -2.6467 C   0  0  0  0  0  0  0  0  0  0  0  0
   -5.4385    4.5105   -2.5802 N   0  0  0  0  0  0  0  0  0  0  0  0
   -4.2818    5.1926   -3.1555 C   0  0  0  0  0  0  0  0  0  0  0  0
   -2.9920    4.4185   -2.9255 C   0  0  0  0  0  0  0  0  0  0  0  0
    4.1289   -2.3695   -1.3668 H   0  0  0  0  0  0  0  0  0  0  0  0
    3.2514   -3.5032   -0.3237 H   0  0  0  0  0  0  0  0  0  0  0  0
    2.3578   -2.3995   -1.3444 H   0  0  0  0  0  0  0  0  0  0  0  0
    3.1774   -0.4370   -0.0384 H   0  0  0  0  0  0  0  0  0  0  0  0
    7.5697    0.0871    1.5306 H   0  0  0  0  0  0  0  0  0  0  0  0
    7.8828   -1.6502    3.2734 H   0  0  0  0  0  0  0  0  0  0  0  0
    1.3151   -0.1795   -0.9606 H   0  0  0  0  0  0  0  0  0  0  0  0
   -2.7496   -0.1182    0.4100 H   0  0  0  0  0  0  0  0  0  0  0  0
    0.5832   -3.0460    2.7378 H   0  0  0  0  0  0  0  0  0  0  0  0
    0.8535   -1.6560    3.5197 H   0  0  0  0  0  0  0  0  0  0  0  0
    0.3007    0.1482   -3.3046 H   0  0  0  0  0  0  0  0  0  0  0  0
   -2.8850    1.9543   -1.0191 H   0  0  0  0  0  0  0  0  0  0  0  0
   -2.6892    3.1935   -4.6534 H   0  0  0  0  0  0  0  0  0  0  0  0
   -4.9038    2.8181   -4.7167 H   0  0  0  0  0  0  0  0  0  0  0  0
   -4.5056    1.4143   -3.7417 H   0  0  0  0  0  0  0  0  0  0  0  0
   -6.4127    2.6710   -2.7899 H   0  0  0  0  0  0  0  0  0  0  0  0
   -5.0650    2.6719   -1.6737 H   0  0  0  0  0  0  0  0  0  0  0  0
   -6.2937    4.8641   -3.0102 H   0  0  0  0  0  0  0  0  0  0  0  0
   -4.4384    5.3416   -4.2311 H   0  0  0  0  0  0  0  0  0  0  0  0
   -4.2019    6.1876   -2.7050 H   0  0  0  0  0  0  0  0  0  0  0  0
   -2.1375    4.9884   -3.3108 H   0  0  0  0  0  0  0  0  0  0  0  0
   -2.8231    4.3132   -1.8462 H   0  0  0  0  0  0  0  0  0  0  0  0
  1  2  1  0
  2  3  1  0
  3  4  2  0
  4  5  1  0
  5  6  2  0
  6  7  1  0
  7  8  2  0
  8  9  1  0
  7 10  1  0
  4 11  1  0
  2 12  1  0
 12 13  1  0
 13 14  2  0
 14 15  1  0
 15 16  2  0
 16 17  1  0
 17 18  2  0
 18 19  1  0
 15 20  1  0
 20 21  1  0
 21 22  2  0
 22 23  1  0
 23 24  1  0
 23 25  1  0
 25 26  1  0
 26 27  1  0
 27 28  1  0
 28 29  1  0
 29 30  1  0
  8  3  1  0
 18 13  1  0
 24 20  2  0
 30 25  1  0
  1 31  1  0
  1 32  1  0
  1 33  1  0
  2 34  1  6
  5 35  1  0
  6 36  1  0
 14 37  1  0
 16 38  1  0
 19 39  1  0
 19 40  1  0
 21 41  1  0
 24 42  1  0
 25 43  1  0
 26 44  1  0
 26 45  1  0
 27 46  1  0
 27 47  1  0
 28 48  1  0
 29 49  1  0
 29 50  1  0
 30 51  1  0
 30 52  1  0
M  END
>  <energy_abs>  (119) 
39.664169909392605

>  <SMILES>  (119) 
C[C@H](c1c(ccc(c1Cl)F)Cl)Oc2cc(cnc2N)c3cnn(c3)C4CCNCC4

>  <cluster_no>  (119) 
119

>  <fda_drugs_id>  (119) 
KTEIFNKAUNYNJU-GFCCVEGCSA-N

>  <initial_conformation_id>  (119) 
185

>  <minimize_method>  (119) 
MMFF

$$$$

     RDKit          3D

 52 55  0  0  0  0  0  0  0  0999 V2000
    3.5915    0.6575    1.1699 C   0  0  0  0  0  0  0  0  0  0  0  0
    3.3304   -0.7063    1.8197 C   0  0  2  0  0  0  0  0  0  0  0  0
    4.5617   -1.6014    1.7574 C   0  0  0  0  0  0  0  0  0  0  0  0
    5.2844   -1.9175    2.9302 C   0  0  0  0  0  0  0  0  0  0  0  0
    6.4041   -2.7684    2.8970 C   0  0  0  0  0  0  0  0  0  0  0  0
    6.8376   -3.3155    1.6940 C   0  0  0  0  0  0  0  0  0  0  0  0
    6.1512   -3.0094    0.5290 C   0  0  0  0  0  0  0  0  0  0  0  0
    5.0272   -2.1669    0.5430 C   0  0  0  0  0  0  0  0  0  0  0  0
    4.2678   -1.8634   -0.9885 Cl  0  0  0  0  0  0  0  0  0  0  0  0
    6.5914   -3.5429   -0.6239 F   0  0  0  0  0  0  0  0  0  0  0  0
    4.8596   -1.2875    4.4859 Cl  0  0  0  0  0  0  0  0  0  0  0  0
    2.2439   -1.4537    1.2439 O   0  0  0  0  0  0  0  0  0  0  0  0
    1.0300   -0.8271    1.3368 C   0  0  0  0  0  0  0  0  0  0  0  0
    0.5461   -0.1889    0.1974 C   0  0  0  0  0  0  0  0  0  0  0  0
   -0.6960    0.4438    0.2303 C   0  0  0  0  0  0  0  0  0  0  0  0
   -1.3945    0.3780    1.4304 C   0  0  0  0  0  0  0  0  0  0  0  0
   -0.9680   -0.2806    2.5391 N   0  0  0  0  0  0  0  0  0  0  0  0
    0.2247   -0.8967    2.4804 C   0  0  0  0  0  0  0  0  0  0  0  0
    0.6128   -1.6289    3.6129 N   0  0  0  0  0  0  0  0  0  0  0  0
   -1.2117    1.1309   -0.9385 C   0  0  0  0  0  0  0  0  0  0  0  0
   -0.5486    1.6014   -2.0971 C   0  0  0  0  0  0  0  0  0  0  0  0
   -1.3785    2.1577   -2.9811 N   0  0  0  0  0  0  0  0  0  0  0  0
   -2.5860    2.0461   -2.4000 N   0  0  0  0  0  0  0  0  0  0  0  0
   -2.5374    1.4446   -1.1722 C   0  0  0  0  0  0  0  0  0  0  0  0
   -3.7797    2.5340   -3.0809 C   0  0  0  0  0  0  0  0  0  0  0  0
   -3.6872    4.0285   -3.4094 C   0  0  0  0  0  0  0  0  0  0  0  0
   -4.9320    4.4893   -4.1607 C   0  0  0  0  0  0  0  0  0  0  0  0
   -5.1462    3.6909   -5.3654 N   0  0  0  0  0  0  0  0  0  0  0  0
   -5.3173    2.2733   -5.0568 C   0  0  0  0  0  0  0  0  0  0  0  0
   -4.0962    1.7116   -4.3342 C   0  0  0  0  0  0  0  0  0  0  0  0
    4.5101    1.1066    1.5617 H   0  0  0  0  0  0  0  0  0  0  0  0
    3.6704    0.6103    0.0775 H   0  0  0  0  0  0  0  0  0  0  0  0
    2.7717    1.3473    1.3915 H   0  0  0  0  0  0  0  0  0  0  0  0
    3.0685   -0.5071    2.8618 H   0  0  0  0  0  0  0  0  0  0  0  0
    6.9459   -3.0040    3.8107 H   0  0  0  0  0  0  0  0  0  0  0  0
    7.6963   -3.9832    1.6548 H   0  0  0  0  0  0  0  0  0  0  0  0
    1.1503   -0.2018   -0.7049 H   0  0  0  0  0  0  0  0  0  0  0  0
   -2.3600    0.8597    1.5576 H   0  0  0  0  0  0  0  0  0  0  0  0
    0.8067   -2.5905    3.3266 H   0  0  0  0  0  0  0  0  0  0  0  0
    1.4659   -1.2465    4.0012 H   0  0  0  0  0  0  0  0  0  0  0  0
    0.5054    1.5630   -2.3390 H   0  0  0  0  0  0  0  0  0  0  0  0
   -3.4391    1.2788   -0.5991 H   0  0  0  0  0  0  0  0  0  0  0  0
   -4.6077    2.3969   -2.3687 H   0  0  0  0  0  0  0  0  0  0  0  0
   -3.5752    4.6105   -2.4848 H   0  0  0  0  0  0  0  0  0  0  0  0
   -2.7988    4.2379   -4.0183 H   0  0  0  0  0  0  0  0  0  0  0  0
   -4.8170    5.5389   -4.4449 H   0  0  0  0  0  0  0  0  0  0  0  0
   -5.8109    4.4321   -3.5087 H   0  0  0  0  0  0  0  0  0  0  0  0
   -5.9649    4.0371   -5.8660 H   0  0  0  0  0  0  0  0  0  0  0  0
   -6.2197    2.1270   -4.4526 H   0  0  0  0  0  0  0  0  0  0  0  0
   -5.4662    1.7213   -5.9920 H   0  0  0  0  0  0  0  0  0  0  0  0
   -4.2859    0.6650   -4.0577 H   0  0  0  0  0  0  0  0  0  0  0  0
   -3.2380    1.7040   -5.0152 H   0  0  0  0  0  0  0  0  0  0  0  0
  1  2  1  0
  2  3  1  0
  3  4  2  0
  4  5  1  0
  5  6  2  0
  6  7  1  0
  7  8  2  0
  8  9  1  0
  7 10  1  0
  4 11  1  0
  2 12  1  0
 12 13  1  0
 13 14  2  0
 14 15  1  0
 15 16  2  0
 16 17  1  0
 17 18  2  0
 18 19  1  0
 15 20  1  0
 20 21  1  0
 21 22  2  0
 22 23  1  0
 23 24  1  0
 23 25  1  0
 25 26  1  0
 26 27  1  0
 27 28  1  0
 28 29  1  0
 29 30  1  0
  8  3  1  0
 18 13  1  0
 24 20  2  0
 30 25  1  0
  1 31  1  0
  1 32  1  0
  1 33  1  0
  2 34  1  1
  5 35  1  0
  6 36  1  0
 14 37  1  0
 16 38  1  0
 19 39  1  0
 19 40  1  0
 21 41  1  0
 24 42  1  0
 25 43  1  0
 26 44  1  0
 26 45  1  0
 27 46  1  0
 27 47  1  0
 28 48  1  0
 29 49  1  0
 29 50  1  0
 30 51  1  0
 30 52  1  0
M  END
>  <energy_abs>  (120) 
36.51281657295008

>  <SMILES>  (120) 
C[C@H](c1c(ccc(c1Cl)F)Cl)Oc2cc(cnc2N)c3cnn(c3)C4CCNCC4

>  <cluster_no>  (120) 
120

>  <fda_drugs_id>  (120) 
KTEIFNKAUNYNJU-GFCCVEGCSA-N

>  <initial_conformation_id>  (120) 
184

>  <minimize_method>  (120) 
MMFF

$$$$

     RDKit          3D

 52 55  0  0  0  0  0  0  0  0999 V2000
    2.1274   -2.8993    0.1167 C   0  0  0  0  0  0  0  0  0  0  0  0
    2.8463   -1.6911    0.7226 C   0  0  2  0  0  0  0  0  0  0  0  0
    4.2752   -2.0657    1.1185 C   0  0  0  0  0  0  0  0  0  0  0  0
    4.5786   -2.7957    2.2924 C   0  0  0  0  0  0  0  0  0  0  0  0
    5.9026   -3.1180    2.6302 C   0  0  0  0  0  0  0  0  0  0  0  0
    6.9541   -2.7361    1.8060 C   0  0  0  0  0  0  0  0  0  0  0  0
    6.6781   -2.0424    0.6382 C   0  0  0  0  0  0  0  0  0  0  0  0
    5.3630   -1.7119    0.2848 C   0  0  0  0  0  0  0  0  0  0  0  0
    5.1434   -0.8823   -1.2225 Cl  0  0  0  0  0  0  0  0  0  0  0  0
    7.7054   -1.6999   -0.1537 F   0  0  0  0  0  0  0  0  0  0  0  0
    3.3718   -3.3759    3.3922 Cl  0  0  0  0  0  0  0  0  0  0  0  0
    2.1573   -1.1960    1.8760 O   0  0  0  0  0  0  0  0  0  0  0  0
    1.0421   -0.4128    1.7445 C   0  0  0  0  0  0  0  0  0  0  0  0
    0.5118    0.0752    0.5497 C   0  0  0  0  0  0  0  0  0  0  0  0
   -0.6414    0.8681    0.5695 C   0  0  0  0  0  0  0  0  0  0  0  0
   -1.2043    1.1382    1.8125 C   0  0  0  0  0  0  0  0  0  0  0  0
   -0.7168    0.6834    2.9899 N   0  0  0  0  0  0  0  0  0  0  0  0
    0.3886   -0.0796    2.9461 C   0  0  0  0  0  0  0  0  0  0  0  0
    0.8942   -0.5503    4.1747 N   0  0  0  0  0  0  0  0  0  0  0  0
   -1.2111    1.3857   -0.6606 C   0  0  0  0  0  0  0  0  0  0  0  0
   -0.6086    1.6883   -1.9036 C   0  0  0  0  0  0  0  0  0  0  0  0
   -1.4830    2.1314   -2.8091 N   0  0  0  0  0  0  0  0  0  0  0  0
   -2.6580    2.1171   -2.1526 N   0  0  0  0  0  0  0  0  0  0  0  0
   -2.5452    1.6759   -0.8618 C   0  0  0  0  0  0  0  0  0  0  0  0
   -3.8883    2.5325   -2.8212 C   0  0  0  0  0  0  0  0  0  0  0  0
   -3.7539    3.8955   -3.5213 C   0  0  0  0  0  0  0  0  0  0  0  0
   -3.5567    3.7245   -5.0228 C   0  0  0  0  0  0  0  0  0  0  0  0
   -4.6651    3.0153   -5.6640 N   0  0  0  0  0  0  0  0  0  0  0  0
   -5.3260    2.0247   -4.8172 C   0  0  0  0  0  0  0  0  0  0  0  0
   -4.3964    1.4336   -3.7653 C   0  0  0  0  0  0  0  0  0  0  0  0
    1.9975   -3.7056    0.8454 H   0  0  0  0  0  0  0  0  0  0  0  0
    2.6781   -3.3003   -0.7407 H   0  0  0  0  0  0  0  0  0  0  0  0
    1.1216   -2.6323   -0.2221 H   0  0  0  0  0  0  0  0  0  0  0  0
    2.8900   -0.8842   -0.0104 H   0  0  0  0  0  0  0  0  0  0  0  0
    6.1176   -3.6758    3.5401 H   0  0  0  0  0  0  0  0  0  0  0  0
    7.9807   -2.9825    2.0590 H   0  0  0  0  0  0  0  0  0  0  0  0
    0.9665   -0.1584   -0.4055 H   0  0  0  0  0  0  0  0  0  0  0  0
   -2.0901    1.7587    1.9156 H   0  0  0  0  0  0  0  0  0  0  0  0
    0.9547   -1.5642    4.1107 H   0  0  0  0  0  0  0  0  0  0  0  0
    1.8552   -0.2276    4.2513 H   0  0  0  0  0  0  0  0  0  0  0  0
    0.4327    1.6088   -2.1883 H   0  0  0  0  0  0  0  0  0  0  0  0
   -3.4122    1.5965   -0.2206 H   0  0  0  0  0  0  0  0  0  0  0  0
   -4.6238    2.6621   -2.0150 H   0  0  0  0  0  0  0  0  0  0  0  0
   -2.9376    4.4916   -3.0963 H   0  0  0  0  0  0  0  0  0  0  0  0
   -4.6725    4.4742   -3.3536 H   0  0  0  0  0  0  0  0  0  0  0  0
   -3.4452    4.7070   -5.4953 H   0  0  0  0  0  0  0  0  0  0  0  0
   -2.6258    3.1818   -5.2233 H   0  0  0  0  0  0  0  0  0  0  0  0
   -5.3523    3.6761   -6.0254 H   0  0  0  0  0  0  0  0  0  0  0  0
   -6.1868    2.4891   -4.3199 H   0  0  0  0  0  0  0  0  0  0  0  0
   -5.7217    1.2265   -5.4541 H   0  0  0  0  0  0  0  0  0  0  0  0
   -3.5637    0.9197   -4.2638 H   0  0  0  0  0  0  0  0  0  0  0  0
   -4.9240    0.6656   -3.1863 H   0  0  0  0  0  0  0  0  0  0  0  0
  1  2  1  0
  2  3  1  0
  3  4  2  0
  4  5  1  0
  5  6  2  0
  6  7  1  0
  7  8  2  0
  8  9  1  0
  7 10  1  0
  4 11  1  0
  2 12  1  0
 12 13  1  0
 13 14  2  0
 14 15  1  0
 15 16  2  0
 16 17  1  0
 17 18  2  0
 18 19  1  0
 15 20  1  0
 20 21  1  0
 21 22  2  0
 22 23  1  0
 23 24  1  0
 23 25  1  0
 25 26  1  0
 26 27  1  0
 27 28  1  0
 28 29  1  0
 29 30  1  0
  8  3  1  0
 18 13  1  0
 24 20  2  0
 30 25  1  0
  1 31  1  0
  1 32  1  0
  1 33  1  0
  2 34  1  6
  5 35  1  0
  6 36  1  0
 14 37  1  0
 16 38  1  0
 19 39  1  0
 19 40  1  0
 21 41  1  0
 24 42  1  0
 25 43  1  0
 26 44  1  0
 26 45  1  0
 27 46  1  0
 27 47  1  0
 28 48  1  0
 29 49  1  0
 29 50  1  0
 30 51  1  0
 30 52  1  0
M  END
>  <energy_abs>  (121) 
39.47486814504987

>  <SMILES>  (121) 
C[C@H](c1c(ccc(c1Cl)F)Cl)Oc2cc(cnc2N)c3cnn(c3)C4CCNCC4

>  <cluster_no>  (121) 
121

>  <fda_drugs_id>  (121) 
KTEIFNKAUNYNJU-GFCCVEGCSA-N

>  <initial_conformation_id>  (121) 
183

>  <minimize_method>  (121) 
MMFF

$$$$

     RDKit          3D

 52 55  0  0  0  0  0  0  0  0999 V2000
    1.8201   -2.9254    0.4744 C   0  0  0  0  0  0  0  0  0  0  0  0
    2.6051   -1.6483    0.7860 C   0  0  2  0  0  0  0  0  0  0  0  0
    4.0922   -1.9667    0.9472 C   0  0  0  0  0  0  0  0  0  0  0  0
    4.6305   -2.5392    2.1244 C   0  0  0  0  0  0  0  0  0  0  0  0
    6.0023   -2.8120    2.2419 C   0  0  0  0  0  0  0  0  0  0  0  0
    6.8699   -2.5341    1.1919 C   0  0  0  0  0  0  0  0  0  0  0  0
    6.3599   -1.9997    0.0191 C   0  0  0  0  0  0  0  0  0  0  0  0
    4.9930   -1.7233   -0.1175 C   0  0  0  0  0  0  0  0  0  0  0  0
    4.4697   -1.1029   -1.6509 Cl  0  0  0  0  0  0  0  0  0  0  0  0
    7.2098   -1.7615   -0.9912 F   0  0  0  0  0  0  0  0  0  0  0  0
    3.6682   -2.9784    3.4971 Cl  0  0  0  0  0  0  0  0  0  0  0  0
    2.1288   -1.0163    1.9788 O   0  0  0  0  0  0  0  0  0  0  0  0
    0.9508   -0.3171    1.9759 C   0  0  0  0  0  0  0  0  0  0  0  0
    0.2314    0.0788    0.8464 C   0  0  0  0  0  0  0  0  0  0  0  0
   -0.9578    0.8058    0.9869 C   0  0  0  0  0  0  0  0  0  0  0  0
   -1.3619    1.0956    2.2877 C   0  0  0  0  0  0  0  0  0  0  0  0
   -0.6897    0.7291    3.4044 N   0  0  0  0  0  0  0  0  0  0  0  0
    0.4488    0.0361    3.2410 C   0  0  0  0  0  0  0  0  0  0  0  0
    1.1542   -0.3279    4.4050 N   0  0  0  0  0  0  0  0  0  0  0  0
   -1.7433    1.2485   -0.1567 C   0  0  0  0  0  0  0  0  0  0  0  0
   -2.9966    1.9070   -0.2170 C   0  0  0  0  0  0  0  0  0  0  0  0
   -3.3917    2.1650   -1.4651 N   0  0  0  0  0  0  0  0  0  0  0  0
   -2.3941    1.6784   -2.2227 N   0  0  0  0  0  0  0  0  0  0  0  0
   -1.3864    1.1160   -1.4849 C   0  0  0  0  0  0  0  0  0  0  0  0
   -2.4394    1.7940   -3.6783 C   0  0  0  0  0  0  0  0  0  0  0  0
   -3.7940    1.3728   -4.2731 C   0  0  0  0  0  0  0  0  0  0  0  0
   -4.6432    2.5895   -4.6204 C   0  0  0  0  0  0  0  0  0  0  0  0
   -3.9987    3.4701   -5.5954 N   0  0  0  0  0  0  0  0  0  0  0  0
   -2.5399    3.4984   -5.5216 C   0  0  0  0  0  0  0  0  0  0  0  0
   -2.0133    3.2001   -4.1240 C   0  0  0  0  0  0  0  0  0  0  0  0
    2.2207   -3.4326   -0.4103 H   0  0  0  0  0  0  0  0  0  0  0  0
    1.8404   -3.6315    1.3096 H   0  0  0  0  0  0  0  0  0  0  0  0
    0.7634   -2.7050    0.2880 H   0  0  0  0  0  0  0  0  0  0  0  0
    2.4932   -0.9385   -0.0346 H   0  0  0  0  0  0  0  0  0  0  0  0
    6.3996   -3.2484    3.1569 H   0  0  0  0  0  0  0  0  0  0  0  0
    7.9327   -2.7422    1.2750 H   0  0  0  0  0  0  0  0  0  0  0  0
    0.5824   -0.1664   -0.1471 H   0  0  0  0  0  0  0  0  0  0  0  0
   -2.2696    1.6543    2.4956 H   0  0  0  0  0  0  0  0  0  0  0  0
    1.3042   -1.3341    4.3717 H   0  0  0  0  0  0  0  0  0  0  0  0
    2.0816    0.0848    4.3395 H   0  0  0  0  0  0  0  0  0  0  0  0
   -3.6435    2.2125    0.5951 H   0  0  0  0  0  0  0  0  0  0  0  0
   -0.5202    0.6918   -1.9726 H   0  0  0  0  0  0  0  0  0  0  0  0
   -1.6954    1.0737   -4.0462 H   0  0  0  0  0  0  0  0  0  0  0  0
   -3.6164    0.7984   -5.1925 H   0  0  0  0  0  0  0  0  0  0  0  0
   -4.3435    0.7045   -3.5997 H   0  0  0  0  0  0  0  0  0  0  0  0
   -5.6091    2.2635   -5.0228 H   0  0  0  0  0  0  0  0  0  0  0  0
   -4.8675    3.1661   -3.7151 H   0  0  0  0  0  0  0  0  0  0  0  0
   -4.2936    3.2340   -6.5425 H   0  0  0  0  0  0  0  0  0  0  0  0
   -2.1269    2.7676   -6.2282 H   0  0  0  0  0  0  0  0  0  0  0  0
   -2.1914    4.4846   -5.8472 H   0  0  0  0  0  0  0  0  0  0  0  0
   -2.3786    3.9663   -3.4268 H   0  0  0  0  0  0  0  0  0  0  0  0
   -0.9186    3.2754   -4.1116 H   0  0  0  0  0  0  0  0  0  0  0  0
  1  2  1  0
  2  3  1  0
  3  4  2  0
  4  5  1  0
  5  6  2  0
  6  7  1  0
  7  8  2  0
  8  9  1  0
  7 10  1  0
  4 11  1  0
  2 12  1  0
 12 13  1  0
 13 14  2  0
 14 15  1  0
 15 16  2  0
 16 17  1  0
 17 18  2  0
 18 19  1  0
 15 20  1  0
 20 21  1  0
 21 22  2  0
 22 23  1  0
 23 24  1  0
 23 25  1  0
 25 26  1  0
 26 27  1  0
 27 28  1  0
 28 29  1  0
 29 30  1  0
  8  3  1  0
 18 13  1  0
 24 20  2  0
 30 25  1  0
  1 31  1  0
  1 32  1  0
  1 33  1  0
  2 34  1  6
  5 35  1  0
  6 36  1  0
 14 37  1  0
 16 38  1  0
 19 39  1  0
 19 40  1  0
 21 41  1  0
 24 42  1  0
 25 43  1  0
 26 44  1  0
 26 45  1  0
 27 46  1  0
 27 47  1  0
 28 48  1  0
 29 49  1  0
 29 50  1  0
 30 51  1  0
 30 52  1  0
M  END
>  <energy_abs>  (122) 
39.665239959107346

>  <SMILES>  (122) 
C[C@H](c1c(ccc(c1Cl)F)Cl)Oc2cc(cnc2N)c3cnn(c3)C4CCNCC4

>  <cluster_no>  (122) 
122

>  <fda_drugs_id>  (122) 
KTEIFNKAUNYNJU-GFCCVEGCSA-N

>  <initial_conformation_id>  (122) 
182

>  <minimize_method>  (122) 
MMFF

$$$$

     RDKit          3D

 52 55  0  0  0  0  0  0  0  0999 V2000
    3.7211    0.5872    1.0107 C   0  0  0  0  0  0  0  0  0  0  0  0
    3.3406   -0.7040    1.7524 C   0  0  2  0  0  0  0  0  0  0  0  0
    4.5262   -1.6648    1.8284 C   0  0  0  0  0  0  0  0  0  0  0  0
    5.1785   -1.9144    3.0587 C   0  0  0  0  0  0  0  0  0  0  0  0
    6.2737   -2.7921    3.1439 C   0  0  0  0  0  0  0  0  0  0  0  0
    6.7487   -3.4402    2.0061 C   0  0  0  0  0  0  0  0  0  0  0  0
    6.1267   -3.2101    0.7899 C   0  0  0  0  0  0  0  0  0  0  0  0
    5.0293   -2.3410    0.6873 C   0  0  0  0  0  0  0  0  0  0  0  0
    4.3422   -2.1509   -0.8963 Cl  0  0  0  0  0  0  0  0  0  0  0  0
    6.5976   -3.8499   -0.2919 F   0  0  0  0  0  0  0  0  0  0  0  0
    4.6916   -1.1656    4.5410 Cl  0  0  0  0  0  0  0  0  0  0  0  0
    2.2509   -1.4342    1.1601 O   0  0  0  0  0  0  0  0  0  0  0  0
    1.0621   -0.7587    1.1527 C   0  0  0  0  0  0  0  0  0  0  0  0
    0.6729   -0.1480   -0.0381 C   0  0  0  0  0  0  0  0  0  0  0  0
   -0.5564    0.5096   -0.1136 C   0  0  0  0  0  0  0  0  0  0  0  0
   -1.3361    0.4984    1.0399 C   0  0  0  0  0  0  0  0  0  0  0  0
   -0.9963   -0.1258    2.2000 N   0  0  0  0  0  0  0  0  0  0  0  0
    0.1806   -0.7727    2.2381 C   0  0  0  0  0  0  0  0  0  0  0  0
    0.4683   -1.4944    3.4048 N   0  0  0  0  0  0  0  0  0  0  0  0
   -0.9817    1.1594   -1.3395 C   0  0  0  0  0  0  0  0  0  0  0  0
   -0.2480    1.5321   -2.4896 C   0  0  0  0  0  0  0  0  0  0  0  0
   -1.0033    2.1113   -3.4244 N   0  0  0  0  0  0  0  0  0  0  0  0
   -2.2379    2.0938   -2.8954 N   0  0  0  0  0  0  0  0  0  0  0  0
   -2.2737    1.5332   -1.6457 C   0  0  0  0  0  0  0  0  0  0  0  0
   -3.3466    2.6937   -3.6315 C   0  0  0  0  0  0  0  0  0  0  0  0
   -4.5003    1.7001   -3.8805 C   0  0  0  0  0  0  0  0  0  0  0  0
   -5.8681    2.3838   -3.8640 C   0  0  0  0  0  0  0  0  0  0  0  0
   -5.7959    3.6929   -4.5005 N   0  0  0  0  0  0  0  0  0  0  0  0
   -4.9397    4.6345   -3.7726 C   0  0  0  0  0  0  0  0  0  0  0  0
   -3.8420    3.9694   -2.9415 C   0  0  0  0  0  0  0  0  0  0  0  0
    2.9445    1.3508    1.1458 H   0  0  0  0  0  0  0  0  0  0  0  0
    4.6601    1.0044    1.3954 H   0  0  0  0  0  0  0  0  0  0  0  0
    3.8220    0.4392   -0.0693 H   0  0  0  0  0  0  0  0  0  0  0  0
    3.0263   -0.4106    2.7582 H   0  0  0  0  0  0  0  0  0  0  0  0
    6.7603   -2.9739    4.1024 H   0  0  0  0  0  0  0  0  0  0  0  0
    7.5961   -4.1215    2.0604 H   0  0  0  0  0  0  0  0  0  0  0  0
    1.3337   -0.2117   -0.8968 H   0  0  0  0  0  0  0  0  0  0  0  0
   -2.2982    1.0034    1.0853 H   0  0  0  0  0  0  0  0  0  0  0  0
    1.3085   -1.1431    3.8470 H   0  0  0  0  0  0  0  0  0  0  0  0
    0.6516   -2.4624    3.1392 H   0  0  0  0  0  0  0  0  0  0  0  0
    0.8113    1.4173   -2.6857 H   0  0  0  0  0  0  0  0  0  0  0  0
   -3.2041    1.4505   -1.1005 H   0  0  0  0  0  0  0  0  0  0  0  0
   -2.9367    2.9787   -4.6155 H   0  0  0  0  0  0  0  0  0  0  0  0
   -4.3394    1.2154   -4.8546 H   0  0  0  0  0  0  0  0  0  0  0  0
   -4.5123    0.8889   -3.1434 H   0  0  0  0  0  0  0  0  0  0  0  0
   -6.2436    2.4782   -2.8403 H   0  0  0  0  0  0  0  0  0  0  0  0
   -6.5836    1.7549   -4.4035 H   0  0  0  0  0  0  0  0  0  0  0  0
   -6.7311    4.0904   -4.6066 H   0  0  0  0  0  0  0  0  0  0  0  0
   -5.5539    5.2537   -3.1100 H   0  0  0  0  0  0  0  0  0  0  0  0
   -4.4852    5.3113   -4.5043 H   0  0  0  0  0  0  0  0  0  0  0  0
   -3.0149    4.6783   -2.7788 H   0  0  0  0  0  0  0  0  0  0  0  0
   -4.2362    3.7253   -1.9440 H   0  0  0  0  0  0  0  0  0  0  0  0
  1  2  1  0
  2  3  1  0
  3  4  2  0
  4  5  1  0
  5  6  2  0
  6  7  1  0
  7  8  2  0
  8  9  1  0
  7 10  1  0
  4 11  1  0
  2 12  1  0
 12 13  1  0
 13 14  2  0
 14 15  1  0
 15 16  2  0
 16 17  1  0
 17 18  2  0
 18 19  1  0
 15 20  1  0
 20 21  1  0
 21 22  2  0
 22 23  1  0
 23 24  1  0
 23 25  1  0
 25 26  1  0
 26 27  1  0
 27 28  1  0
 28 29  1  0
 29 30  1  0
  8  3  1  0
 18 13  1  0
 24 20  2  0
 30 25  1  0
  1 31  1  0
  1 32  1  0
  1 33  1  0
  2 34  1  1
  5 35  1  0
  6 36  1  0
 14 37  1  0
 16 38  1  0
 19 39  1  0
 19 40  1  0
 21 41  1  0
 24 42  1  0
 25 43  1  0
 26 44  1  0
 26 45  1  0
 27 46  1  0
 27 47  1  0
 28 48  1  0
 29 49  1  0
 29 50  1  0
 30 51  1  0
 30 52  1  0
M  END
>  <energy_abs>  (123) 
42.34605579019522

>  <SMILES>  (123) 
C[C@H](c1c(ccc(c1Cl)F)Cl)Oc2cc(cnc2N)c3cnn(c3)C4CCNCC4

>  <cluster_no>  (123) 
123

>  <fda_drugs_id>  (123) 
KTEIFNKAUNYNJU-GFCCVEGCSA-N

>  <initial_conformation_id>  (123) 
181

>  <minimize_method>  (123) 
MMFF

$$$$

     RDKit          3D

 52 55  0  0  0  0  0  0  0  0999 V2000
    3.3684    0.7126    0.4890 C   0  0  0  0  0  0  0  0  0  0  0  0
    3.1641   -0.5680    1.3108 C   0  0  2  0  0  0  0  0  0  0  0  0
    4.2904   -1.5660    1.0591 C   0  0  0  0  0  0  0  0  0  0  0  0
    5.3048   -1.7627    2.0262 C   0  0  0  0  0  0  0  0  0  0  0  0
    6.3397   -2.6859    1.8228 C   0  0  0  0  0  0  0  0  0  0  0  0
    6.3970   -3.4319    0.6514 C   0  0  0  0  0  0  0  0  0  0  0  0
    5.4294   -3.2384   -0.3204 C   0  0  0  0  0  0  0  0  0  0  0  0
    4.3876   -2.3171   -0.1386 C   0  0  0  0  0  0  0  0  0  0  0  0
    3.2748   -2.1370   -1.4557 Cl  0  0  0  0  0  0  0  0  0  0  0  0
    5.5182   -3.9542   -1.4515 F   0  0  0  0  0  0  0  0  0  0  0  0
    5.3618   -0.8759    3.5103 Cl  0  0  0  0  0  0  0  0  0  0  0  0
    1.9152   -1.2334    1.0327 O   0  0  0  0  0  0  0  0  0  0  0  0
    0.8217   -0.5674    1.5184 C   0  0  0  0  0  0  0  0  0  0  0  0
    0.0700    0.1910    0.6228 C   0  0  0  0  0  0  0  0  0  0  0  0
   -1.0801    0.8442    1.0635 C   0  0  0  0  0  0  0  0  0  0  0  0
   -1.4096    0.6829    2.4074 C   0  0  0  0  0  0  0  0  0  0  0  0
   -0.7179   -0.0857    3.2881 N   0  0  0  0  0  0  0  0  0  0  0  0
    0.3705   -0.7271    2.8329 C   0  0  0  0  0  0  0  0  0  0  0  0
    1.0280   -1.5817    3.7286 N   0  0  0  0  0  0  0  0  0  0  0  0
   -1.9084    1.6397    0.1713 C   0  0  0  0  0  0  0  0  0  0  0  0
   -2.8990    2.6154    0.4419 C   0  0  0  0  0  0  0  0  0  0  0  0
   -3.4664    3.1007   -0.6643 N   0  0  0  0  0  0  0  0  0  0  0  0
   -2.8556    2.4311   -1.6577 N   0  0  0  0  0  0  0  0  0  0  0  0
   -1.9006    1.5620   -1.2062 C   0  0  0  0  0  0  0  0  0  0  0  0
   -3.2396    2.6810   -3.0453 C   0  0  0  0  0  0  0  0  0  0  0  0
   -3.7916    1.4154   -3.7255 C   0  0  0  0  0  0  0  0  0  0  0  0
   -3.0132    1.0590   -4.9860 C   0  0  0  0  0  0  0  0  0  0  0  0
   -2.9650    2.1933   -5.8984 N   0  0  0  0  0  0  0  0  0  0  0  0
   -2.4237    3.4194   -5.3115 C   0  0  0  0  0  0  0  0  0  0  0  0
   -2.0863    3.3176   -3.8275 C   0  0  0  0  0  0  0  0  0  0  0  0
    4.3768    1.1155    0.6193 H   0  0  0  0  0  0  0  0  0  0  0  0
    3.1924    0.5571   -0.5806 H   0  0  0  0  0  0  0  0  0  0  0  0
    2.6653    1.4890    0.8058 H   0  0  0  0  0  0  0  0  0  0  0  0
    3.1566   -0.2800    2.3657 H   0  0  0  0  0  0  0  0  0  0  0  0
    7.1088   -2.8274    2.5838 H   0  0  0  0  0  0  0  0  0  0  0  0
    7.1953   -4.1519    0.4863 H   0  0  0  0  0  0  0  0  0  0  0  0
    0.3975    0.2579   -0.4108 H   0  0  0  0  0  0  0  0  0  0  0  0
   -2.2881    1.1533    2.8414 H   0  0  0  0  0  0  0  0  0  0  0  0
    1.1010   -2.4970    3.2913 H   0  0  0  0  0  0  0  0  0  0  0  0
    1.9678   -1.2538    3.9049 H   0  0  0  0  0  0  0  0  0  0  0  0
   -3.2299    2.9999    1.3980 H   0  0  0  0  0  0  0  0  0  0  0  0
   -1.3238    0.9623   -1.8993 H   0  0  0  0  0  0  0  0  0  0  0  0
   -4.0593    3.4116   -2.9981 H   0  0  0  0  0  0  0  0  0  0  0  0
   -3.7918    0.5532   -3.0498 H   0  0  0  0  0  0  0  0  0  0  0  0
   -4.8453    1.5867   -3.9901 H   0  0  0  0  0  0  0  0  0  0  0  0
   -3.5043    0.2205   -5.4892 H   0  0  0  0  0  0  0  0  0  0  0  0
   -2.0016    0.7236   -4.7280 H   0  0  0  0  0  0  0  0  0  0  0  0
   -2.4489    1.9482   -6.7407 H   0  0  0  0  0  0  0  0  0  0  0  0
   -1.5224    3.7153   -5.8614 H   0  0  0  0  0  0  0  0  0  0  0  0
   -3.1564    4.2215   -5.4636 H   0  0  0  0  0  0  0  0  0  0  0  0
   -1.1650    2.7322   -3.7107 H   0  0  0  0  0  0  0  0  0  0  0  0
   -1.8632    4.3147   -3.4272 H   0  0  0  0  0  0  0  0  0  0  0  0
  1  2  1  0
  2  3  1  0
  3  4  2  0
  4  5  1  0
  5  6  2  0
  6  7  1  0
  7  8  2  0
  8  9  1  0
  7 10  1  0
  4 11  1  0
  2 12  1  0
 12 13  1  0
 13 14  2  0
 14 15  1  0
 15 16  2  0
 16 17  1  0
 17 18  2  0
 18 19  1  0
 15 20  1  0
 20 21  1  0
 21 22  2  0
 22 23  1  0
 23 24  1  0
 23 25  1  0
 25 26  1  0
 26 27  1  0
 27 28  1  0
 28 29  1  0
 29 30  1  0
  8  3  1  0
 18 13  1  0
 24 20  2  0
 30 25  1  0
  1 31  1  0
  1 32  1  0
  1 33  1  0
  2 34  1  1
  5 35  1  0
  6 36  1  0
 14 37  1  0
 16 38  1  0
 19 39  1  0
 19 40  1  0
 21 41  1  0
 24 42  1  0
 25 43  1  0
 26 44  1  0
 26 45  1  0
 27 46  1  0
 27 47  1  0
 28 48  1  0
 29 49  1  0
 29 50  1  0
 30 51  1  0
 30 52  1  0
M  END
>  <energy_abs>  (124) 
41.7071006563347

>  <SMILES>  (124) 
C[C@H](c1c(ccc(c1Cl)F)Cl)Oc2cc(cnc2N)c3cnn(c3)C4CCNCC4

>  <cluster_no>  (124) 
124

>  <fda_drugs_id>  (124) 
KTEIFNKAUNYNJU-GFCCVEGCSA-N

>  <initial_conformation_id>  (124) 
179

>  <minimize_method>  (124) 
MMFF

$$$$

     RDKit          3D

 52 55  0  0  0  0  0  0  0  0999 V2000
    4.3199    0.4942    0.2905 C   0  0  0  0  0  0  0  0  0  0  0  0
    3.5848   -0.6317    1.0236 C   0  0  2  0  0  0  0  0  0  0  0  0
    4.5542   -1.6492    1.6186 C   0  0  0  0  0  0  0  0  0  0  0  0
    4.7695   -1.7042    3.0162 C   0  0  0  0  0  0  0  0  0  0  0  0
    5.6555   -2.6290    3.5886 C   0  0  0  0  0  0  0  0  0  0  0  0
    6.3550   -3.5189    2.7842 C   0  0  0  0  0  0  0  0  0  0  0  0
    6.1663   -3.4807    1.4109 C   0  0  0  0  0  0  0  0  0  0  0  0
    5.2835   -2.5639    0.8217 C   0  0  0  0  0  0  0  0  0  0  0  0
    5.1518   -2.6237   -0.9052 Cl  0  0  0  0  0  0  0  0  0  0  0  0
    6.8561   -4.3489    0.6558 F   0  0  0  0  0  0  0  0  0  0  0  0
    3.9654   -0.6479    4.1287 Cl  0  0  0  0  0  0  0  0  0  0  0  0
    2.6807   -1.3095    0.1300 O   0  0  0  0  0  0  0  0  0  0  0  0
    1.3864   -0.8826    0.2747 C   0  0  0  0  0  0  0  0  0  0  0  0
    0.8946    0.0641   -0.6229 C   0  0  0  0  0  0  0  0  0  0  0  0
   -0.4271    0.4973   -0.5121 C   0  0  0  0  0  0  0  0  0  0  0  0
   -1.1841   -0.0738    0.5094 C   0  0  0  0  0  0  0  0  0  0  0  0
   -0.7354   -1.0196    1.3750 N   0  0  0  0  0  0  0  0  0  0  0  0
    0.5330   -1.4356    1.2365 C   0  0  0  0  0  0  0  0  0  0  0  0
    0.9855   -2.4255    2.1220 N   0  0  0  0  0  0  0  0  0  0  0  0
   -0.9653    1.4990   -1.4169 C   0  0  0  0  0  0  0  0  0  0  0  0
   -0.3133    2.3862   -2.3060 C   0  0  0  0  0  0  0  0  0  0  0  0
   -1.1615    3.1613   -2.9845 N   0  0  0  0  0  0  0  0  0  0  0  0
   -2.3719    2.7786   -2.5378 N   0  0  0  0  0  0  0  0  0  0  0  0
   -2.3043    1.7841   -1.5985 C   0  0  0  0  0  0  0  0  0  0  0  0
   -3.5707    3.4156   -3.0782 C   0  0  0  0  0  0  0  0  0  0  0  0
   -4.4192    4.0893   -1.9868 C   0  0  0  0  0  0  0  0  0  0  0  0
   -5.7079    3.3180   -1.7252 C   0  0  0  0  0  0  0  0  0  0  0  0
   -6.5300    3.2057   -2.9268 N   0  0  0  0  0  0  0  0  0  0  0  0
   -5.7891    2.9531   -4.1615 C   0  0  0  0  0  0  0  0  0  0  0  0
   -4.3773    2.4307   -3.9351 C   0  0  0  0  0  0  0  0  0  0  0  0
    5.0785    0.9570    0.9303 H   0  0  0  0  0  0  0  0  0  0  0  0
    4.8036    0.1523   -0.6294 H   0  0  0  0  0  0  0  0  0  0  0  0
    3.6124    1.2734   -0.0139 H   0  0  0  0  0  0  0  0  0  0  0  0
    3.0059   -0.1543    1.8209 H   0  0  0  0  0  0  0  0  0  0  0  0
    5.8054   -2.6566    4.6669 H   0  0  0  0  0  0  0  0  0  0  0  0
    7.0462   -4.2386    3.2135 H   0  0  0  0  0  0  0  0  0  0  0  0
    1.5499    0.4408   -1.4017 H   0  0  0  0  0  0  0  0  0  0  0  0
   -2.2168    0.2141    0.6845 H   0  0  0  0  0  0  0  0  0  0  0  0
    1.6966   -2.0349    2.7298 H   0  0  0  0  0  0  0  0  0  0  0  0
    1.4171   -3.1647    1.5729 H   0  0  0  0  0  0  0  0  0  0  0  0
    0.7474    2.5032   -2.4889 H   0  0  0  0  0  0  0  0  0  0  0  0
   -3.2024    1.3709   -1.1621 H   0  0  0  0  0  0  0  0  0  0  0  0
   -3.2034    4.2168   -3.7363 H   0  0  0  0  0  0  0  0  0  0  0  0
   -3.8590    4.2127   -1.0519 H   0  0  0  0  0  0  0  0  0  0  0  0
   -4.6810    5.1038   -2.3186 H   0  0  0  0  0  0  0  0  0  0  0  0
   -6.2891    3.8296   -0.9501 H   0  0  0  0  0  0  0  0  0  0  0  0
   -5.4783    2.3182   -1.3378 H   0  0  0  0  0  0  0  0  0  0  0  0
   -7.2492    2.4946   -2.7884 H   0  0  0  0  0  0  0  0  0  0  0  0
   -6.3497    2.2424   -4.7803 H   0  0  0  0  0  0  0  0  0  0  0  0
   -5.7431    3.8885   -4.7327 H   0  0  0  0  0  0  0  0  0  0  0  0
   -3.8732    2.2797   -4.8983 H   0  0  0  0  0  0  0  0  0  0  0  0
   -4.4307    1.4408   -3.4627 H   0  0  0  0  0  0  0  0  0  0  0  0
  1  2  1  0
  2  3  1  0
  3  4  2  0
  4  5  1  0
  5  6  2  0
  6  7  1  0
  7  8  2  0
  8  9  1  0
  7 10  1  0
  4 11  1  0
  2 12  1  0
 12 13  1  0
 13 14  2  0
 14 15  1  0
 15 16  2  0
 16 17  1  0
 17 18  2  0
 18 19  1  0
 15 20  1  0
 20 21  1  0
 21 22  2  0
 22 23  1  0
 23 24  1  0
 23 25  1  0
 25 26  1  0
 26 27  1  0
 27 28  1  0
 28 29  1  0
 29 30  1  0
  8  3  1  0
 18 13  1  0
 24 20  2  0
 30 25  1  0
  1 31  1  0
  1 32  1  0
  1 33  1  0
  2 34  1  1
  5 35  1  0
  6 36  1  0
 14 37  1  0
 16 38  1  0
 19 39  1  0
 19 40  1  0
 21 41  1  0
 24 42  1  0
 25 43  1  0
 26 44  1  0
 26 45  1  0
 27 46  1  0
 27 47  1  0
 28 48  1  0
 29 49  1  0
 29 50  1  0
 30 51  1  0
 30 52  1  0
M  END
>  <energy_abs>  (125) 
40.76506909403051

>  <SMILES>  (125) 
C[C@H](c1c(ccc(c1Cl)F)Cl)Oc2cc(cnc2N)c3cnn(c3)C4CCNCC4

>  <cluster_no>  (125) 
125

>  <fda_drugs_id>  (125) 
KTEIFNKAUNYNJU-GFCCVEGCSA-N

>  <initial_conformation_id>  (125) 
178

>  <minimize_method>  (125) 
MMFF

$$$$

     RDKit          3D

 52 55  0  0  0  0  0  0  0  0999 V2000
    2.3181   -3.0272   -0.2569 C   0  0  0  0  0  0  0  0  0  0  0  0
    2.9168   -1.8473    0.5136 C   0  0  2  0  0  0  0  0  0  0  0  0
    4.2921   -2.2105    1.0733 C   0  0  0  0  0  0  0  0  0  0  0  0
    4.4613   -3.0099    2.2283 C   0  0  0  0  0  0  0  0  0  0  0  0
    5.7394   -3.3170    2.7208 C   0  0  0  0  0  0  0  0  0  0  0  0
    6.8778   -2.8454    2.0770 C   0  0  0  0  0  0  0  0  0  0  0  0
    6.7354   -2.0826    0.9308 C   0  0  0  0  0  0  0  0  0  0  0  0
    5.4676   -1.7681    0.4235 C   0  0  0  0  0  0  0  0  0  0  0  0
    5.4219   -0.8428   -1.0400 Cl  0  0  0  0  0  0  0  0  0  0  0  0
    7.8459   -1.6581    0.3104 F   0  0  0  0  0  0  0  0  0  0  0  0
    3.1407   -3.6915    3.1184 Cl  0  0  0  0  0  0  0  0  0  0  0  0
    2.0609   -1.4480    1.5919 O   0  0  0  0  0  0  0  0  0  0  0  0
    1.0085   -0.6005    1.3741 C   0  0  0  0  0  0  0  0  0  0  0  0
    0.6341   -0.0440    0.1502 C   0  0  0  0  0  0  0  0  0  0  0  0
   -0.4701    0.8135    0.0799 C   0  0  0  0  0  0  0  0  0  0  0  0
   -1.1507    1.0684    1.2657 C   0  0  0  0  0  0  0  0  0  0  0  0
   -0.8197    0.5414    2.4692 N   0  0  0  0  0  0  0  0  0  0  0  0
    0.2444   -0.2778    2.5119 C   0  0  0  0  0  0  0  0  0  0  0  0
    0.5765   -0.8356    3.7644 N   0  0  0  0  0  0  0  0  0  0  0  0
   -0.8702    1.4077   -1.1822 C   0  0  0  0  0  0  0  0  0  0  0  0
   -0.1200    1.7008   -2.3443 C   0  0  0  0  0  0  0  0  0  0  0  0
   -0.8603    2.2333   -3.3182 N   0  0  0  0  0  0  0  0  0  0  0  0
   -2.0974    2.2925   -2.7853 N   0  0  0  0  0  0  0  0  0  0  0  0
   -2.1498    1.8124   -1.5052 C   0  0  0  0  0  0  0  0  0  0  0  0
   -3.1889    2.8581   -3.5751 C   0  0  0  0  0  0  0  0  0  0  0  0
   -4.3014    1.8310   -3.8286 C   0  0  0  0  0  0  0  0  0  0  0  0
   -5.6038    2.5396   -4.1702 C   0  0  0  0  0  0  0  0  0  0  0  0
   -6.0821    3.3915   -3.0795 N   0  0  0  0  0  0  0  0  0  0  0  0
   -5.0300    3.9715   -2.2473 C   0  0  0  0  0  0  0  0  0  0  0  0
   -3.7124    4.1773   -2.9819 C   0  0  0  0  0  0  0  0  0  0  0  0
    2.1555   -3.8980    0.3872 H   0  0  0  0  0  0  0  0  0  0  0  0
    2.9705   -3.3327   -1.0824 H   0  0  0  0  0  0  0  0  0  0  0  0
    1.3388   -2.7690   -0.6722 H   0  0  0  0  0  0  0  0  0  0  0  0
    3.0329   -0.9953   -0.1604 H   0  0  0  0  0  0  0  0  0  0  0  0
    5.8516   -3.9324    3.6111 H   0  0  0  0  0  0  0  0  0  0  0  0
    7.8704   -3.0784    2.4505 H   0  0  0  0  0  0  0  0  0  0  0  0
    1.1703   -0.2755   -0.7614 H   0  0  0  0  0  0  0  0  0  0  0  0
   -2.0104    1.7319    1.3009 H   0  0  0  0  0  0  0  0  0  0  0  0
    0.5403   -1.8489    3.6655 H   0  0  0  0  0  0  0  0  0  0  0  0
    1.5527   -0.6158    3.9450 H   0  0  0  0  0  0  0  0  0  0  0  0
    0.9382    1.5527   -2.5230 H   0  0  0  0  0  0  0  0  0  0  0  0
   -3.0802    1.7844   -0.9553 H   0  0  0  0  0  0  0  0  0  0  0  0
   -2.7416    3.1059   -4.5502 H   0  0  0  0  0  0  0  0  0  0  0  0
   -4.0063    1.1686   -4.6531 H   0  0  0  0  0  0  0  0  0  0  0  0
   -4.4597    1.1794   -2.9589 H   0  0  0  0  0  0  0  0  0  0  0  0
   -6.3780    1.8009   -4.3991 H   0  0  0  0  0  0  0  0  0  0  0  0
   -5.4636    3.1484   -5.0739 H   0  0  0  0  0  0  0  0  0  0  0  0
   -6.6920    4.1237   -3.4567 H   0  0  0  0  0  0  0  0  0  0  0  0
   -5.3817    4.9231   -1.8357 H   0  0  0  0  0  0  0  0  0  0  0  0
   -4.8668    3.3127   -1.3870 H   0  0  0  0  0  0  0  0  0  0  0  0
   -2.9755    4.6352   -2.3072 H   0  0  0  0  0  0  0  0  0  0  0  0
   -3.8676    4.8984   -3.7976 H   0  0  0  0  0  0  0  0  0  0  0  0
  1  2  1  0
  2  3  1  0
  3  4  2  0
  4  5  1  0
  5  6  2  0
  6  7  1  0
  7  8  2  0
  8  9  1  0
  7 10  1  0
  4 11  1  0
  2 12  1  0
 12 13  1  0
 13 14  2  0
 14 15  1  0
 15 16  2  0
 16 17  1  0
 17 18  2  0
 18 19  1  0
 15 20  1  0
 20 21  1  0
 21 22  2  0
 22 23  1  0
 23 24  1  0
 23 25  1  0
 25 26  1  0
 26 27  1  0
 27 28  1  0
 28 29  1  0
 29 30  1  0
  8  3  1  0
 18 13  1  0
 24 20  2  0
 30 25  1  0
  1 31  1  0
  1 32  1  0
  1 33  1  0
  2 34  1  6
  5 35  1  0
  6 36  1  0
 14 37  1  0
 16 38  1  0
 19 39  1  0
 19 40  1  0
 21 41  1  0
 24 42  1  0
 25 43  1  0
 26 44  1  0
 26 45  1  0
 27 46  1  0
 27 47  1  0
 28 48  1  0
 29 49  1  0
 29 50  1  0
 30 51  1  0
 30 52  1  0
M  END
>  <energy_abs>  (126) 
39.72313721788778

>  <SMILES>  (126) 
C[C@H](c1c(ccc(c1Cl)F)Cl)Oc2cc(cnc2N)c3cnn(c3)C4CCNCC4

>  <cluster_no>  (126) 
126

>  <fda_drugs_id>  (126) 
KTEIFNKAUNYNJU-GFCCVEGCSA-N

>  <initial_conformation_id>  (126) 
177

>  <minimize_method>  (126) 
MMFF

$$$$

     RDKit          3D

 52 55  0  0  0  0  0  0  0  0999 V2000
    3.5413   -3.6328    3.0186 C   0  0  0  0  0  0  0  0  0  0  0  0
    2.6831   -3.0697    1.8762 C   0  0  2  0  0  0  0  0  0  0  0  0
    3.4152   -2.2055    0.8361 C   0  0  0  0  0  0  0  0  0  0  0  0
    3.1670   -2.4149   -0.5477 C   0  0  0  0  0  0  0  0  0  0  0  0
    3.7769   -1.6321   -1.5397 C   0  0  0  0  0  0  0  0  0  0  0  0
    4.6567   -0.6211   -1.1879 C   0  0  0  0  0  0  0  0  0  0  0  0
    4.9239   -0.3981    0.1539 C   0  0  0  0  0  0  0  0  0  0  0  0
    4.3218   -1.1681    1.1622 C   0  0  0  0  0  0  0  0  0  0  0  0
    4.7671   -0.7530    2.7795 Cl  0  0  0  0  0  0  0  0  0  0  0  0
    5.7840    0.5850    0.4656 F   0  0  0  0  0  0  0  0  0  0  0  0
    2.0871   -3.6388   -1.1411 Cl  0  0  0  0  0  0  0  0  0  0  0  0
    1.4364   -2.6013    2.4530 O   0  0  0  0  0  0  0  0  0  0  0  0
    1.0770   -1.3102    2.2020 C   0  0  0  0  0  0  0  0  0  0  0  0
    0.4510   -0.9842    1.0004 C   0  0  0  0  0  0  0  0  0  0  0  0
    0.0670    0.3344    0.7559 C   0  0  0  0  0  0  0  0  0  0  0  0
    0.3050    1.2558    1.7748 C   0  0  0  0  0  0  0  0  0  0  0  0
    0.8529    0.9532    2.9811 N   0  0  0  0  0  0  0  0  0  0  0  0
    1.2105   -0.3268    3.1858 C   0  0  0  0  0  0  0  0  0  0  0  0
    1.7558   -0.6197    4.4340 N   0  0  0  0  0  0  0  0  0  0  0  0
   -0.5459    0.7060   -0.5056 C   0  0  0  0  0  0  0  0  0  0  0  0
   -0.4806    0.0916   -1.7797 C   0  0  0  0  0  0  0  0  0  0  0  0
   -1.2176    0.7205   -2.6972 N   0  0  0  0  0  0  0  0  0  0  0  0
   -1.7667    1.7446   -2.0174 N   0  0  0  0  0  0  0  0  0  0  0  0
   -1.3871    1.7820   -0.7025 C   0  0  0  0  0  0  0  0  0  0  0  0
   -2.7067    2.6477   -2.6710 C   0  0  0  0  0  0  0  0  0  0  0  0
   -4.0571    1.9646   -2.9114 C   0  0  0  0  0  0  0  0  0  0  0  0
   -5.0208    2.9190   -3.6108 C   0  0  0  0  0  0  0  0  0  0  0  0
   -4.4644    3.4389   -4.8598 N   0  0  0  0  0  0  0  0  0  0  0  0
   -3.1935    4.1337   -4.6399 C   0  0  0  0  0  0  0  0  0  0  0  0
   -2.1547    3.2317   -3.9787 C   0  0  0  0  0  0  0  0  0  0  0  0
    3.0507   -4.5176    3.4435 H   0  0  0  0  0  0  0  0  0  0  0  0
    4.5378   -3.9314    2.6756 H   0  0  0  0  0  0  0  0  0  0  0  0
    3.6277   -2.9352    3.8543 H   0  0  0  0  0  0  0  0  0  0  0  0
    2.3859   -3.9869    1.3586 H   0  0  0  0  0  0  0  0  0  0  0  0
    3.5637   -1.8083   -2.5916 H   0  0  0  0  0  0  0  0  0  0  0  0
    5.1334   -0.0045   -1.9442 H   0  0  0  0  0  0  0  0  0  0  0  0
    0.2543   -1.7674    0.2748 H   0  0  0  0  0  0  0  0  0  0  0  0
    0.0565    2.3078    1.6609 H   0  0  0  0  0  0  0  0  0  0  0  0
    1.3062   -1.4302    4.8437 H   0  0  0  0  0  0  0  0  0  0  0  0
    1.6841    0.2155    5.0064 H   0  0  0  0  0  0  0  0  0  0  0  0
    0.0721   -0.7904   -2.0773 H   0  0  0  0  0  0  0  0  0  0  0  0
   -1.7662    2.5425   -0.0340 H   0  0  0  0  0  0  0  0  0  0  0  0
   -2.8615    3.4787   -1.9693 H   0  0  0  0  0  0  0  0  0  0  0  0
   -4.4900    1.6355   -1.9593 H   0  0  0  0  0  0  0  0  0  0  0  0
   -3.9261    1.0641   -3.5236 H   0  0  0  0  0  0  0  0  0  0  0  0
   -5.2793    3.7503   -2.9463 H   0  0  0  0  0  0  0  0  0  0  0  0
   -5.9564    2.3959   -3.8324 H   0  0  0  0  0  0  0  0  0  0  0  0
   -4.3121    2.6635   -5.5077 H   0  0  0  0  0  0  0  0  0  0  0  0
   -3.3625    5.0293   -4.0294 H   0  0  0  0  0  0  0  0  0  0  0  0
   -2.8108    4.4828   -5.6070 H   0  0  0  0  0  0  0  0  0  0  0  0
   -1.2390    3.8029   -3.7821 H   0  0  0  0  0  0  0  0  0  0  0  0
   -1.8788    2.4291   -4.6756 H   0  0  0  0  0  0  0  0  0  0  0  0
  1  2  1  0
  2  3  1  0
  3  4  2  0
  4  5  1  0
  5  6  2  0
  6  7  1  0
  7  8  2  0
  8  9  1  0
  7 10  1  0
  4 11  1  0
  2 12  1  0
 12 13  1  0
 13 14  2  0
 14 15  1  0
 15 16  2  0
 16 17  1  0
 17 18  2  0
 18 19  1  0
 15 20  1  0
 20 21  1  0
 21 22  2  0
 22 23  1  0
 23 24  1  0
 23 25  1  0
 25 26  1  0
 26 27  1  0
 27 28  1  0
 28 29  1  0
 29 30  1  0
  8  3  1  0
 18 13  1  0
 24 20  2  0
 30 25  1  0
  1 31  1  0
  1 32  1  0
  1 33  1  0
  2 34  1  6
  5 35  1  0
  6 36  1  0
 14 37  1  0
 16 38  1  0
 19 39  1  0
 19 40  1  0
 21 41  1  0
 24 42  1  0
 25 43  1  0
 26 44  1  0
 26 45  1  0
 27 46  1  0
 27 47  1  0
 28 48  1  0
 29 49  1  0
 29 50  1  0
 30 51  1  0
 30 52  1  0
M  END
>  <energy_abs>  (127) 
34.12483877265162

>  <SMILES>  (127) 
C[C@H](c1c(ccc(c1Cl)F)Cl)Oc2cc(cnc2N)c3cnn(c3)C4CCNCC4

>  <cluster_no>  (127) 
127

>  <fda_drugs_id>  (127) 
KTEIFNKAUNYNJU-GFCCVEGCSA-N

>  <initial_conformation_id>  (127) 
176

>  <minimize_method>  (127) 
MMFF

$$$$

     RDKit          3D

 52 55  0  0  0  0  0  0  0  0999 V2000
    3.0469   -2.4146   -1.0380 C   0  0  0  0  0  0  0  0  0  0  0  0
    3.2376   -1.4738    0.1547 C   0  0  2  0  0  0  0  0  0  0  0  0
    4.6511   -1.6128    0.7216 C   0  0  0  0  0  0  0  0  0  0  0  0
    5.6450   -0.6577    0.3994 C   0  0  0  0  0  0  0  0  0  0  0  0
    6.9478   -0.7518    0.9097 C   0  0  0  0  0  0  0  0  0  0  0  0
    7.2992   -1.8056    1.7434 C   0  0  0  0  0  0  0  0  0  0  0  0
    6.3498   -2.7680    2.0529 C   0  0  0  0  0  0  0  0  0  0  0  0
    5.0425   -2.6908    1.5512 C   0  0  0  0  0  0  0  0  0  0  0  0
    3.9748   -3.9879    1.9820 Cl  0  0  0  0  0  0  0  0  0  0  0  0
    6.7192   -3.7870    2.8440 F   0  0  0  0  0  0  0  0  0  0  0  0
    5.3472    0.6781   -0.6634 Cl  0  0  0  0  0  0  0  0  0  0  0  0
    2.2900   -1.7425    1.1934 O   0  0  0  0  0  0  0  0  0  0  0  0
    0.9957   -1.3078    1.0924 C   0  0  0  0  0  0  0  0  0  0  0  0
    0.4776   -0.4844    0.0920 C   0  0  0  0  0  0  0  0  0  0  0  0
   -0.8712   -0.1117    0.1225 C   0  0  0  0  0  0  0  0  0  0  0  0
   -1.6397   -0.5972    1.1753 C   0  0  0  0  0  0  0  0  0  0  0  0
   -1.1702   -1.3945    2.1628 N   0  0  0  0  0  0  0  0  0  0  0  0
    0.1278   -1.7393    2.1132 C   0  0  0  0  0  0  0  0  0  0  0  0
    0.6124   -2.5681    3.1446 N   0  0  0  0  0  0  0  0  0  0  0  0
   -1.4329    0.7384   -0.9106 C   0  0  0  0  0  0  0  0  0  0  0  0
   -1.0577    0.9235   -2.2614 C   0  0  0  0  0  0  0  0  0  0  0  0
   -1.8201    1.8177   -2.8944 N   0  0  0  0  0  0  0  0  0  0  0  0
   -2.6962    2.2138   -1.9503 N   0  0  0  0  0  0  0  0  0  0  0  0
   -2.5006    1.5966   -0.7446 C   0  0  0  0  0  0  0  0  0  0  0  0
   -3.7152    3.2091   -2.2596 C   0  0  0  0  0  0  0  0  0  0  0  0
   -4.5852    2.7953   -3.4497 C   0  0  0  0  0  0  0  0  0  0  0  0
   -5.6912    3.8240   -3.6901 C   0  0  0  0  0  0  0  0  0  0  0  0
   -5.3133    5.1966   -3.3442 N   0  0  0  0  0  0  0  0  0  0  0  0
   -3.8822    5.4292   -3.4923 C   0  0  0  0  0  0  0  0  0  0  0  0
   -3.1041    4.6057   -2.4679 C   0  0  0  0  0  0  0  0  0  0  0  0
    3.1076   -3.4668   -0.7430 H   0  0  0  0  0  0  0  0  0  0  0  0
    2.0597   -2.2834   -1.4916 H   0  0  0  0  0  0  0  0  0  0  0  0
    3.8010   -2.2335   -1.8113 H   0  0  0  0  0  0  0  0  0  0  0  0
    3.0945   -0.4410   -0.1666 H   0  0  0  0  0  0  0  0  0  0  0  0
    7.6958   -0.0037    0.6534 H   0  0  0  0  0  0  0  0  0  0  0  0
    8.3046   -1.8905    2.1442 H   0  0  0  0  0  0  0  0  0  0  0  0
    1.1026   -0.1111   -0.7102 H   0  0  0  0  0  0  0  0  0  0  0  0
   -2.6977   -0.3666    1.2640 H   0  0  0  0  0  0  0  0  0  0  0  0
    1.3845   -2.0808    3.5912 H   0  0  0  0  0  0  0  0  0  0  0  0
    1.0282   -3.3883    2.7085 H   0  0  0  0  0  0  0  0  0  0  0  0
   -0.2623    0.4407   -2.8142 H   0  0  0  0  0  0  0  0  0  0  0  0
   -3.1216    1.8307    0.1092 H   0  0  0  0  0  0  0  0  0  0  0  0
   -4.3656    3.2528   -1.3742 H   0  0  0  0  0  0  0  0  0  0  0  0
   -5.0290    1.8062   -3.2826 H   0  0  0  0  0  0  0  0  0  0  0  0
   -3.9680    2.7097   -4.3541 H   0  0  0  0  0  0  0  0  0  0  0  0
   -6.5724    3.5599   -3.0949 H   0  0  0  0  0  0  0  0  0  0  0  0
   -5.9965    3.7762   -4.7422 H   0  0  0  0  0  0  0  0  0  0  0  0
   -5.8386    5.8494   -3.9269 H   0  0  0  0  0  0  0  0  0  0  0  0
   -3.5577    5.1916   -4.5130 H   0  0  0  0  0  0  0  0  0  0  0  0
   -3.6658    6.4916   -3.3347 H   0  0  0  0  0  0  0  0  0  0  0  0
   -2.0569    4.5500   -2.7899 H   0  0  0  0  0  0  0  0  0  0  0  0
   -3.0945    5.1278   -1.5019 H   0  0  0  0  0  0  0  0  0  0  0  0
  1  2  1  0
  2  3  1  0
  3  4  2  0
  4  5  1  0
  5  6  2  0
  6  7  1  0
  7  8  2  0
  8  9  1  0
  7 10  1  0
  4 11  1  0
  2 12  1  0
 12 13  1  0
 13 14  2  0
 14 15  1  0
 15 16  2  0
 16 17  1  0
 17 18  2  0
 18 19  1  0
 15 20  1  0
 20 21  1  0
 21 22  2  0
 22 23  1  0
 23 24  1  0
 23 25  1  0
 25 26  1  0
 26 27  1  0
 27 28  1  0
 28 29  1  0
 29 30  1  0
  8  3  1  0
 18 13  1  0
 24 20  2  0
 30 25  1  0
  1 31  1  0
  1 32  1  0
  1 33  1  0
  2 34  1  6
  5 35  1  0
  6 36  1  0
 14 37  1  0
 16 38  1  0
 19 39  1  0
 19 40  1  0
 21 41  1  0
 24 42  1  0
 25 43  1  0
 26 44  1  0
 26 45  1  0
 27 46  1  0
 27 47  1  0
 28 48  1  0
 29 49  1  0
 29 50  1  0
 30 51  1  0
 30 52  1  0
M  END
>  <energy_abs>  (128) 
38.089582656540784

>  <SMILES>  (128) 
C[C@H](c1c(ccc(c1Cl)F)Cl)Oc2cc(cnc2N)c3cnn(c3)C4CCNCC4

>  <cluster_no>  (128) 
128

>  <fda_drugs_id>  (128) 
KTEIFNKAUNYNJU-GFCCVEGCSA-N

>  <initial_conformation_id>  (128) 
174

>  <minimize_method>  (128) 
MMFF

$$$$

     RDKit          3D

 52 55  0  0  0  0  0  0  0  0999 V2000
    3.5260   -2.4489   -1.7156 C   0  0  0  0  0  0  0  0  0  0  0  0
    3.9212   -1.4459   -0.6108 C   0  0  2  0  0  0  0  0  0  0  0  0
    4.7329   -1.8422    0.6382 C   0  0  0  0  0  0  0  0  0  0  0  0
    5.5931   -2.9748    0.6793 C   0  0  0  0  0  0  0  0  0  0  0  0
    6.3089   -3.3269    1.8411 C   0  0  0  0  0  0  0  0  0  0  0  0
    6.2590   -2.5237    2.9743 C   0  0  0  0  0  0  0  0  0  0  0  0
    5.4984   -1.3639    2.9421 C   0  0  0  0  0  0  0  0  0  0  0  0
    4.7670   -1.0046    1.7935 C   0  0  0  0  0  0  0  0  0  0  0  0
    3.9837    0.5524    1.9003 Cl  0  0  0  0  0  0  0  0  0  0  0  0
    5.5271   -0.5653    4.0217 F   0  0  0  0  0  0  0  0  0  0  0  0
    5.9357   -4.0071   -0.6726 Cl  0  0  0  0  0  0  0  0  0  0  0  0
    2.7992   -0.5705   -0.3858 O   0  0  0  0  0  0  0  0  0  0  0  0
    1.5469   -0.9881   -0.0239 C   0  0  0  0  0  0  0  0  0  0  0  0
    0.5580   -0.0946   -0.4621 C   0  0  0  0  0  0  0  0  0  0  0  0
   -0.7851   -0.2981   -0.1611 C   0  0  0  0  0  0  0  0  0  0  0  0
   -1.0770   -1.4105    0.6168 C   0  0  0  0  0  0  0  0  0  0  0  0
   -0.1519   -2.2906    1.0772 N   0  0  0  0  0  0  0  0  0  0  0  0
    1.1437   -2.0645    0.7687 C   0  0  0  0  0  0  0  0  0  0  0  0
    1.9992   -3.0091    1.3251 N   0  0  0  0  0  0  0  0  0  0  0  0
   -1.8108    0.6273   -0.6059 C   0  0  0  0  0  0  0  0  0  0  0  0
   -3.1209    0.8754   -0.1267 C   0  0  0  0  0  0  0  0  0  0  0  0
   -3.7554    1.8344   -0.8142 N   0  0  0  0  0  0  0  0  0  0  0  0
   -2.8447    2.2200   -1.7298 N   0  0  0  0  0  0  0  0  0  0  0  0
   -1.6854    1.4961   -1.6701 C   0  0  0  0  0  0  0  0  0  0  0  0
   -3.1497    3.2945   -2.6713 C   0  0  0  0  0  0  0  0  0  0  0  0
   -3.2350    4.6487   -1.9531 C   0  0  0  0  0  0  0  0  0  0  0  0
   -3.9433    5.6777   -2.8248 C   0  0  0  0  0  0  0  0  0  0  0  0
   -5.2895    5.2841   -3.2343 N   0  0  0  0  0  0  0  0  0  0  0  0
   -5.5751    3.8549   -3.0993 C   0  0  0  0  0  0  0  0  0  0  0  0
   -4.3915    2.9964   -3.5282 C   0  0  0  0  0  0  0  0  0  0  0  0
    3.1083   -3.3826   -1.3207 H   0  0  0  0  0  0  0  0  0  0  0  0
    2.7636   -2.0209   -2.3810 H   0  0  0  0  0  0  0  0  0  0  0  0
    4.3830   -2.7008   -2.3630 H   0  0  0  0  0  0  0  0  0  0  0  0
    4.6319   -0.7757   -1.1198 H   0  0  0  0  0  0  0  0  0  0  0  0
    6.9235   -4.2213    1.8590 H   0  0  0  0  0  0  0  0  0  0  0  0
    6.8221   -2.7721    3.8696 H   0  0  0  0  0  0  0  0  0  0  0  0
    0.8745    0.7725   -1.0317 H   0  0  0  0  0  0  0  0  0  0  0  0
   -2.0966   -1.6612    0.9010 H   0  0  0  0  0  0  0  0  0  0  0  0
    2.4292   -3.5666    0.5948 H   0  0  0  0  0  0  0  0  0  0  0  0
    1.3832   -3.6053    1.8782 H   0  0  0  0  0  0  0  0  0  0  0  0
   -3.6442    0.4075    0.7004 H   0  0  0  0  0  0  0  0  0  0  0  0
   -0.8794    1.6731   -2.3742 H   0  0  0  0  0  0  0  0  0  0  0  0
   -2.2918    3.3241   -3.3557 H   0  0  0  0  0  0  0  0  0  0  0  0
   -3.7719    4.5615   -1.0002 H   0  0  0  0  0  0  0  0  0  0  0  0
   -2.2266    4.9932   -1.7015 H   0  0  0  0  0  0  0  0  0  0  0  0
   -3.9975    6.6395   -2.2965 H   0  0  0  0  0  0  0  0  0  0  0  0
   -3.3572    5.8614   -3.7337 H   0  0  0  0  0  0  0  0  0  0  0  0
   -5.9843    5.8114   -2.7033 H   0  0  0  0  0  0  0  0  0  0  0  0
   -6.4470    3.6207   -3.7207 H   0  0  0  0  0  0  0  0  0  0  0  0
   -5.8577    3.6266   -2.0639 H   0  0  0  0  0  0  0  0  0  0  0  0
   -4.6621    1.9342   -3.5072 H   0  0  0  0  0  0  0  0  0  0  0  0
   -4.1583    3.2204   -4.5786 H   0  0  0  0  0  0  0  0  0  0  0  0
  1  2  1  0
  2  3  1  0
  3  4  2  0
  4  5  1  0
  5  6  2  0
  6  7  1  0
  7  8  2  0
  8  9  1  0
  7 10  1  0
  4 11  1  0
  2 12  1  0
 12 13  1  0
 13 14  2  0
 14 15  1  0
 15 16  2  0
 16 17  1  0
 17 18  2  0
 18 19  1  0
 15 20  1  0
 20 21  1  0
 21 22  2  0
 22 23  1  0
 23 24  1  0
 23 25  1  0
 25 26  1  0
 26 27  1  0
 27 28  1  0
 28 29  1  0
 29 30  1  0
  8  3  1  0
 18 13  1  0
 24 20  2  0
 30 25  1  0
  1 31  1  0
  1 32  1  0
  1 33  1  0
  2 34  1  6
  5 35  1  0
  6 36  1  0
 14 37  1  0
 16 38  1  0
 19 39  1  0
 19 40  1  0
 21 41  1  0
 24 42  1  0
 25 43  1  0
 26 44  1  0
 26 45  1  0
 27 46  1  0
 27 47  1  0
 28 48  1  0
 29 49  1  0
 29 50  1  0
 30 51  1  0
 30 52  1  0
M  END
>  <energy_abs>  (129) 
47.79442171592598

>  <SMILES>  (129) 
C[C@H](c1c(ccc(c1Cl)F)Cl)Oc2cc(cnc2N)c3cnn(c3)C4CCNCC4

>  <cluster_no>  (129) 
129

>  <fda_drugs_id>  (129) 
KTEIFNKAUNYNJU-GFCCVEGCSA-N

>  <initial_conformation_id>  (129) 
173

>  <minimize_method>  (129) 
MMFF

$$$$

     RDKit          3D

 52 55  0  0  0  0  0  0  0  0999 V2000
    1.8094   -2.0817    2.1682 C   0  0  0  0  0  0  0  0  0  0  0  0
    2.8972   -2.1802    1.0872 C   0  0  2  0  0  0  0  0  0  0  0  0
    4.2953   -2.2256    1.6980 C   0  0  0  0  0  0  0  0  0  0  0  0
    5.0814   -3.4058    1.6260 C   0  0  0  0  0  0  0  0  0  0  0  0
    6.3650   -3.4690    2.1914 C   0  0  0  0  0  0  0  0  0  0  0  0
    6.9020   -2.3616    2.8381 C   0  0  0  0  0  0  0  0  0  0  0  0
    6.1558   -1.1923    2.9136 C   0  0  0  0  0  0  0  0  0  0  0  0
    4.8692   -1.1107    2.3571 C   0  0  0  0  0  0  0  0  0  0  0  0
    4.0535    0.4061    2.5141 Cl  0  0  0  0  0  0  0  0  0  0  0  0
    6.7005   -0.1310    3.5367 F   0  0  0  0  0  0  0  0  0  0  0  0
    4.5340   -4.8484    0.8375 Cl  0  0  0  0  0  0  0  0  0  0  0  0
    2.8834   -1.0899    0.1462 O   0  0  0  0  0  0  0  0  0  0  0  0
    1.7558   -1.0378   -0.6302 C   0  0  0  0  0  0  0  0  0  0  0  0
    0.8028   -0.0650   -0.3108 C   0  0  0  0  0  0  0  0  0  0  0  0
   -0.3279    0.0825   -1.1101 C   0  0  0  0  0  0  0  0  0  0  0  0
   -0.4348   -0.7709   -2.2042 C   0  0  0  0  0  0  0  0  0  0  0  0
    0.4948   -1.7044   -2.5533 N   0  0  0  0  0  0  0  0  0  0  0  0
    1.5924   -1.8132   -1.7855 C   0  0  0  0  0  0  0  0  0  0  0  0
    2.5733   -2.7185   -2.2102 N   0  0  0  0  0  0  0  0  0  0  0  0
   -1.3299    1.0833   -0.7997 C   0  0  0  0  0  0  0  0  0  0  0  0
   -1.6518    1.7127    0.4207 C   0  0  0  0  0  0  0  0  0  0  0  0
   -2.6183    2.6230    0.2938 N   0  0  0  0  0  0  0  0  0  0  0  0
   -2.9165    2.5944   -1.0169 N   0  0  0  0  0  0  0  0  0  0  0  0
   -2.1771    1.6794   -1.7110 C   0  0  0  0  0  0  0  0  0  0  0  0
   -3.9587    3.4769   -1.5310 C   0  0  0  0  0  0  0  0  0  0  0  0
   -3.4567    4.4110   -2.6496 C   0  0  0  0  0  0  0  0  0  0  0  0
   -4.3715    4.3840   -3.8706 C   0  0  0  0  0  0  0  0  0  0  0  0
   -5.7696    4.5775   -3.5052 N   0  0  0  0  0  0  0  0  0  0  0  0
   -6.2641    3.6243   -2.5081 C   0  0  0  0  0  0  0  0  0  0  0  0
   -5.2042    2.6838   -1.9437 C   0  0  0  0  0  0  0  0  0  0  0  0
    0.8204   -2.2855    1.7354 H   0  0  0  0  0  0  0  0  0  0  0  0
    1.7441   -1.0857    2.6139 H   0  0  0  0  0  0  0  0  0  0  0  0
    1.9738   -2.8152    2.9679 H   0  0  0  0  0  0  0  0  0  0  0  0
    2.6966   -3.1053    0.5365 H   0  0  0  0  0  0  0  0  0  0  0  0
    6.9429   -4.3838    2.1390 H   0  0  0  0  0  0  0  0  0  0  0  0
    7.8949   -2.4003    3.2820 H   0  0  0  0  0  0  0  0  0  0  0  0
    0.9734    0.5772    0.5517 H   0  0  0  0  0  0  0  0  0  0  0  0
   -1.2961   -0.7409   -2.8680 H   0  0  0  0  0  0  0  0  0  0  0  0
    3.4544   -2.2182   -2.2905 H   0  0  0  0  0  0  0  0  0  0  0  0
    2.6966   -3.4496   -1.5211 H   0  0  0  0  0  0  0  0  0  0  0  0
   -1.2271    1.5434    1.4032 H   0  0  0  0  0  0  0  0  0  0  0  0
   -2.3039    1.5541   -2.7792 H   0  0  0  0  0  0  0  0  0  0  0  0
   -4.2410    4.1186   -0.6826 H   0  0  0  0  0  0  0  0  0  0  0  0
   -3.4121    5.4333   -2.2539 H   0  0  0  0  0  0  0  0  0  0  0  0
   -2.4336    4.1720   -2.9636 H   0  0  0  0  0  0  0  0  0  0  0  0
   -4.2592    3.4383   -4.4160 H   0  0  0  0  0  0  0  0  0  0  0  0
   -4.0707    5.1739   -4.5672 H   0  0  0  0  0  0  0  0  0  0  0  0
   -5.9016    5.5272   -3.1543 H   0  0  0  0  0  0  0  0  0  0  0  0
   -7.0724    3.0320   -2.9545 H   0  0  0  0  0  0  0  0  0  0  0  0
   -6.7158    4.1917   -1.6814 H   0  0  0  0  0  0  0  0  0  0  0  0
   -4.9492    1.9217   -2.6934 H   0  0  0  0  0  0  0  0  0  0  0  0
   -5.6129    2.1387   -1.0840 H   0  0  0  0  0  0  0  0  0  0  0  0
  1  2  1  0
  2  3  1  0
  3  4  2  0
  4  5  1  0
  5  6  2  0
  6  7  1  0
  7  8  2  0
  8  9  1  0
  7 10  1  0
  4 11  1  0
  2 12  1  0
 12 13  1  0
 13 14  2  0
 14 15  1  0
 15 16  2  0
 16 17  1  0
 17 18  2  0
 18 19  1  0
 15 20  1  0
 20 21  1  0
 21 22  2  0
 22 23  1  0
 23 24  1  0
 23 25  1  0
 25 26  1  0
 26 27  1  0
 27 28  1  0
 28 29  1  0
 29 30  1  0
  8  3  1  0
 18 13  1  0
 24 20  2  0
 30 25  1  0
  1 31  1  0
  1 32  1  0
  1 33  1  0
  2 34  1  6
  5 35  1  0
  6 36  1  0
 14 37  1  0
 16 38  1  0
 19 39  1  0
 19 40  1  0
 21 41  1  0
 24 42  1  0
 25 43  1  0
 26 44  1  0
 26 45  1  0
 27 46  1  0
 27 47  1  0
 28 48  1  0
 29 49  1  0
 29 50  1  0
 30 51  1  0
 30 52  1  0
M  END
>  <energy_abs>  (130) 
43.942922685684024

>  <SMILES>  (130) 
C[C@H](c1c(ccc(c1Cl)F)Cl)Oc2cc(cnc2N)c3cnn(c3)C4CCNCC4

>  <cluster_no>  (130) 
130

>  <fda_drugs_id>  (130) 
KTEIFNKAUNYNJU-GFCCVEGCSA-N

>  <initial_conformation_id>  (130) 
172

>  <minimize_method>  (130) 
MMFF

$$$$

     RDKit          3D

 52 55  0  0  0  0  0  0  0  0999 V2000
    3.9885   -3.9736    1.7339 C   0  0  0  0  0  0  0  0  0  0  0  0
    3.2653   -2.9355    0.8724 C   0  0  2  0  0  0  0  0  0  0  0  0
    3.7828   -1.5281    1.1591 C   0  0  0  0  0  0  0  0  0  0  0  0
    4.6796   -0.9056    0.2584 C   0  0  0  0  0  0  0  0  0  0  0  0
    5.1579    0.3926    0.4792 C   0  0  0  0  0  0  0  0  0  0  0  0
    4.7580    1.1018    1.6030 C   0  0  0  0  0  0  0  0  0  0  0  0
    3.8971    0.5038    2.5115 C   0  0  0  0  0  0  0  0  0  0  0  0
    3.4205   -0.7981    2.3131 C   0  0  0  0  0  0  0  0  0  0  0  0
    2.3910   -1.4478    3.5463 Cl  0  0  0  0  0  0  0  0  0  0  0  0
    3.5368    1.2075    3.5896 F   0  0  0  0  0  0  0  0  0  0  0  0
    5.2787   -1.6952   -1.1635 Cl  0  0  0  0  0  0  0  0  0  0  0  0
    1.8456   -3.0824    1.0884 O   0  0  0  0  0  0  0  0  0  0  0  0
    1.1160   -2.6774   -0.0010 C   0  0  0  0  0  0  0  0  0  0  0  0
    0.5879   -1.3894   -0.0137 C   0  0  0  0  0  0  0  0  0  0  0  0
   -0.1895   -0.9685   -1.0958 C   0  0  0  0  0  0  0  0  0  0  0  0
   -0.3909   -1.8973   -2.1122 C   0  0  0  0  0  0  0  0  0  0  0  0
    0.0841   -3.1649   -2.1037 N   0  0  0  0  0  0  0  0  0  0  0  0
    0.8022   -3.5574   -1.0404 C   0  0  0  0  0  0  0  0  0  0  0  0
    1.2279   -4.8956   -1.0054 N   0  0  0  0  0  0  0  0  0  0  0  0
   -0.7608    0.3664   -1.1261 C   0  0  0  0  0  0  0  0  0  0  0  0
   -0.7192    1.4108   -0.1703 C   0  0  0  0  0  0  0  0  0  0  0  0
   -1.3953    2.4976   -0.5497 N   0  0  0  0  0  0  0  0  0  0  0  0
   -1.8748    2.1724   -1.7629 N   0  0  0  0  0  0  0  0  0  0  0  0
   -1.5216    0.8996   -2.1474 C   0  0  0  0  0  0  0  0  0  0  0  0
   -2.6841    3.1150   -2.5412 C   0  0  0  0  0  0  0  0  0  0  0  0
   -2.1012    4.5356   -2.5908 C   0  0  0  0  0  0  0  0  0  0  0  0
   -2.4632    5.3730   -1.3664 C   0  0  0  0  0  0  0  0  0  0  0  0
   -3.9090    5.3594   -1.1222 N   0  0  0  0  0  0  0  0  0  0  0  0
   -4.3776    3.9983   -0.8656 C   0  0  0  0  0  0  0  0  0  0  0  0
   -4.1479    3.1152   -2.0878 C   0  0  0  0  0  0  0  0  0  0  0  0
    3.7078   -3.8988    2.7888 H   0  0  0  0  0  0  0  0  0  0  0  0
    3.7203   -4.9857    1.4118 H   0  0  0  0  0  0  0  0  0  0  0  0
    5.0771   -3.8659    1.6514 H   0  0  0  0  0  0  0  0  0  0  0  0
    3.4743   -3.2238   -0.1614 H   0  0  0  0  0  0  0  0  0  0  0  0
    5.8507    0.8458   -0.2225 H   0  0  0  0  0  0  0  0  0  0  0  0
    5.1199    2.1085    1.7805 H   0  0  0  0  0  0  0  0  0  0  0  0
    0.7729   -0.7416    0.8331 H   0  0  0  0  0  0  0  0  0  0  0  0
   -0.9738   -1.6648   -3.0019 H   0  0  0  0  0  0  0  0  0  0  0  0
    2.2385   -4.9287   -1.0205 H   0  0  0  0  0  0  0  0  0  0  0  0
    0.9292   -5.2842   -0.1142 H   0  0  0  0  0  0  0  0  0  0  0  0
   -0.2360    1.4247    0.7974 H   0  0  0  0  0  0  0  0  0  0  0  0
   -1.8465    0.5084   -3.1021 H   0  0  0  0  0  0  0  0  0  0  0  0
   -2.6507    2.7184   -3.5658 H   0  0  0  0  0  0  0  0  0  0  0  0
   -1.0102    4.5092   -2.7141 H   0  0  0  0  0  0  0  0  0  0  0  0
   -2.5035    5.0401   -3.4798 H   0  0  0  0  0  0  0  0  0  0  0  0
   -1.9188    5.0413   -0.4759 H   0  0  0  0  0  0  0  0  0  0  0  0
   -2.1534    6.4080   -1.5449 H   0  0  0  0  0  0  0  0  0  0  0  0
   -4.1052    5.9331   -0.3013 H   0  0  0  0  0  0  0  0  0  0  0  0
   -3.8961    3.5805    0.0260 H   0  0  0  0  0  0  0  0  0  0  0  0
   -5.4512    4.0328   -0.6514 H   0  0  0  0  0  0  0  0  0  0  0  0
   -4.4963    2.0977   -1.8764 H   0  0  0  0  0  0  0  0  0  0  0  0
   -4.7651    3.4920   -2.9118 H   0  0  0  0  0  0  0  0  0  0  0  0
  1  2  1  0
  2  3  1  0
  3  4  2  0
  4  5  1  0
  5  6  2  0
  6  7  1  0
  7  8  2  0
  8  9  1  0
  7 10  1  0
  4 11  1  0
  2 12  1  0
 12 13  1  0
 13 14  2  0
 14 15  1  0
 15 16  2  0
 16 17  1  0
 17 18  2  0
 18 19  1  0
 15 20  1  0
 20 21  1  0
 21 22  2  0
 22 23  1  0
 23 24  1  0
 23 25  1  0
 25 26  1  0
 26 27  1  0
 27 28  1  0
 28 29  1  0
 29 30  1  0
  8  3  1  0
 18 13  1  0
 24 20  2  0
 30 25  1  0
  1 31  1  0
  1 32  1  0
  1 33  1  0
  2 34  1  6
  5 35  1  0
  6 36  1  0
 14 37  1  0
 16 38  1  0
 19 39  1  0
 19 40  1  0
 21 41  1  0
 24 42  1  0
 25 43  1  0
 26 44  1  0
 26 45  1  0
 27 46  1  0
 27 47  1  0
 28 48  1  0
 29 49  1  0
 29 50  1  0
 30 51  1  0
 30 52  1  0
M  END
>  <energy_abs>  (131) 
32.35934984984932

>  <SMILES>  (131) 
C[C@H](c1c(ccc(c1Cl)F)Cl)Oc2cc(cnc2N)c3cnn(c3)C4CCNCC4

>  <cluster_no>  (131) 
131

>  <fda_drugs_id>  (131) 
KTEIFNKAUNYNJU-GFCCVEGCSA-N

>  <initial_conformation_id>  (131) 
171

>  <minimize_method>  (131) 
MMFF

$$$$

     RDKit          3D

 52 55  0  0  0  0  0  0  0  0999 V2000
    1.2766   -1.8449    1.9878 C   0  0  0  0  0  0  0  0  0  0  0  0
    2.5348   -1.6761    1.1253 C   0  0  2  0  0  0  0  0  0  0  0  0
    3.7916   -1.5839    1.9909 C   0  0  0  0  0  0  0  0  0  0  0  0
    4.1181   -0.4248    2.7396 C   0  0  0  0  0  0  0  0  0  0  0  0
    5.2833   -0.3630    3.5232 C   0  0  0  0  0  0  0  0  0  0  0  0
    6.1497   -1.4496    3.5852 C   0  0  0  0  0  0  0  0  0  0  0  0
    5.8389   -2.6021    2.8759 C   0  0  0  0  0  0  0  0  0  0  0  0
    4.6768   -2.6843    2.0932 C   0  0  0  0  0  0  0  0  0  0  0  0
    4.3851   -4.1952    1.2896 Cl  0  0  0  0  0  0  0  0  0  0  0  0
    6.6802   -3.6442    2.9645 F   0  0  0  0  0  0  0  0  0  0  0  0
    3.1246    0.9958    2.7840 Cl  0  0  0  0  0  0  0  0  0  0  0  0
    2.4390   -0.4884    0.3129 O   0  0  0  0  0  0  0  0  0  0  0  0
    1.7790   -0.6925   -0.8691 C   0  0  0  0  0  0  0  0  0  0  0  0
    0.5351   -0.0838   -1.0268 C   0  0  0  0  0  0  0  0  0  0  0  0
   -0.1656   -0.2441   -2.2233 C   0  0  0  0  0  0  0  0  0  0  0  0
    0.4481   -1.0136   -3.2112 C   0  0  0  0  0  0  0  0  0  0  0  0
    1.6733   -1.5894   -3.0959 N   0  0  0  0  0  0  0  0  0  0  0  0
    2.3320   -1.4018   -1.9394 C   0  0  0  0  0  0  0  0  0  0  0  0
    3.6017   -1.9754   -1.8624 N   0  0  0  0  0  0  0  0  0  0  0  0
   -1.4709    0.3522   -2.4367 C   0  0  0  0  0  0  0  0  0  0  0  0
   -2.5254   -0.0054   -3.3087 C   0  0  0  0  0  0  0  0  0  0  0  0
   -3.5741    0.8153   -3.2174 N   0  0  0  0  0  0  0  0  0  0  0  0
   -3.2001    1.7121   -2.2838 N   0  0  0  0  0  0  0  0  0  0  0  0
   -1.9430    1.4796   -1.7949 C   0  0  0  0  0  0  0  0  0  0  0  0
   -4.1271    2.7717   -1.8933 C   0  0  0  0  0  0  0  0  0  0  0  0
   -3.5899    4.1550   -2.2862 C   0  0  0  0  0  0  0  0  0  0  0  0
   -4.3033    5.2453   -1.4968 C   0  0  0  0  0  0  0  0  0  0  0  0
   -4.1476    5.1136   -0.0490 N   0  0  0  0  0  0  0  0  0  0  0  0
   -3.8205    3.7678    0.4168 C   0  0  0  0  0  0  0  0  0  0  0  0
   -4.5154    2.6866   -0.4052 C   0  0  0  0  0  0  0  0  0  0  0  0
    1.3777   -2.6886    2.6783 H   0  0  0  0  0  0  0  0  0  0  0  0
    1.0487   -0.9472    2.5697 H   0  0  0  0  0  0  0  0  0  0  0  0
    0.4020   -2.0308    1.3529 H   0  0  0  0  0  0  0  0  0  0  0  0
    2.5972   -2.5538    0.4717 H   0  0  0  0  0  0  0  0  0  0  0  0
    5.5203    0.5382    4.0883 H   0  0  0  0  0  0  0  0  0  0  0  0
    7.0553   -1.4102    4.1848 H   0  0  0  0  0  0  0  0  0  0  0  0
    0.1239    0.4911   -0.2018 H   0  0  0  0  0  0  0  0  0  0  0  0
   -0.0286   -1.1929   -4.1710 H   0  0  0  0  0  0  0  0  0  0  0  0
    4.2895   -1.2830   -1.5846 H   0  0  0  0  0  0  0  0  0  0  0  0
    3.8031   -2.3741   -2.7763 H   0  0  0  0  0  0  0  0  0  0  0  0
   -2.5776   -0.8323   -4.0055 H   0  0  0  0  0  0  0  0  0  0  0  0
   -1.4998    2.1282   -1.0532 H   0  0  0  0  0  0  0  0  0  0  0  0
   -5.0449    2.5858   -2.4711 H   0  0  0  0  0  0  0  0  0  0  0  0
   -2.5083    4.2326   -2.1091 H   0  0  0  0  0  0  0  0  0  0  0  0
   -3.7320    4.3142   -3.3625 H   0  0  0  0  0  0  0  0  0  0  0  0
   -3.9361    6.2298   -1.8082 H   0  0  0  0  0  0  0  0  0  0  0  0
   -5.3749    5.2274   -1.7324 H   0  0  0  0  0  0  0  0  0  0  0  0
   -3.4488    5.7746    0.2945 H   0  0  0  0  0  0  0  0  0  0  0  0
   -4.1186    3.6790    1.4678 H   0  0  0  0  0  0  0  0  0  0  0  0
   -2.7334    3.6239    0.3848 H   0  0  0  0  0  0  0  0  0  0  0  0
   -5.6028    2.8232   -0.3146 H   0  0  0  0  0  0  0  0  0  0  0  0
   -4.2995    1.6968    0.0148 H   0  0  0  0  0  0  0  0  0  0  0  0
  1  2  1  0
  2  3  1  0
  3  4  2  0
  4  5  1  0
  5  6  2  0
  6  7  1  0
  7  8  2  0
  8  9  1  0
  7 10  1  0
  4 11  1  0
  2 12  1  0
 12 13  1  0
 13 14  2  0
 14 15  1  0
 15 16  2  0
 16 17  1  0
 17 18  2  0
 18 19  1  0
 15 20  1  0
 20 21  1  0
 21 22  2  0
 22 23  1  0
 23 24  1  0
 23 25  1  0
 25 26  1  0
 26 27  1  0
 27 28  1  0
 28 29  1  0
 29 30  1  0
  8  3  1  0
 18 13  1  0
 24 20  2  0
 30 25  1  0
  1 31  1  0
  1 32  1  0
  1 33  1  0
  2 34  1  6
  5 35  1  0
  6 36  1  0
 14 37  1  0
 16 38  1  0
 19 39  1  0
 19 40  1  0
 21 41  1  0
 24 42  1  0
 25 43  1  0
 26 44  1  0
 26 45  1  0
 27 46  1  0
 27 47  1  0
 28 48  1  0
 29 49  1  0
 29 50  1  0
 30 51  1  0
 30 52  1  0
M  END
>  <energy_abs>  (132) 
29.3733092893195

>  <SMILES>  (132) 
C[C@H](c1c(ccc(c1Cl)F)Cl)Oc2cc(cnc2N)c3cnn(c3)C4CCNCC4

>  <cluster_no>  (132) 
132

>  <fda_drugs_id>  (132) 
KTEIFNKAUNYNJU-GFCCVEGCSA-N

>  <initial_conformation_id>  (132) 
169

>  <minimize_method>  (132) 
MMFF

$$$$

     RDKit          3D

 52 55  0  0  0  0  0  0  0  0999 V2000
    3.9926   -3.7197    1.0904 C   0  0  0  0  0  0  0  0  0  0  0  0
    3.3850   -2.5249    0.3497 C   0  0  2  0  0  0  0  0  0  0  0  0
    3.3259   -1.2876    1.2406 C   0  0  0  0  0  0  0  0  0  0  0  0
    4.2374   -0.2241    1.0434 C   0  0  0  0  0  0  0  0  0  0  0  0
    4.1877    0.9391    1.8252 C   0  0  0  0  0  0  0  0  0  0  0  0
    3.2367    1.0663    2.8321 C   0  0  0  0  0  0  0  0  0  0  0  0
    2.3467    0.0274    3.0575 C   0  0  0  0  0  0  0  0  0  0  0  0
    2.3835   -1.1421    2.2854 C   0  0  0  0  0  0  0  0  0  0  0  0
    1.2227   -2.3629    2.6766 Cl  0  0  0  0  0  0  0  0  0  0  0  0
    1.4409    0.1743    4.0357 F   0  0  0  0  0  0  0  0  0  0  0  0
    5.4837   -0.2716   -0.1586 Cl  0  0  0  0  0  0  0  0  0  0  0  0
    2.0910   -2.9243   -0.1526 O   0  0  0  0  0  0  0  0  0  0  0  0
    1.7473   -2.2270   -1.2847 C   0  0  0  0  0  0  0  0  0  0  0  0
    0.9805   -1.0705   -1.1563 C   0  0  0  0  0  0  0  0  0  0  0  0
    0.6299   -0.3505   -2.2982 C   0  0  0  0  0  0  0  0  0  0  0  0
    1.0586   -0.8570   -3.5223 C   0  0  0  0  0  0  0  0  0  0  0  0
    1.7697   -2.0030   -3.6735 N   0  0  0  0  0  0  0  0  0  0  0  0
    2.0869   -2.6902   -2.5625 C   0  0  0  0  0  0  0  0  0  0  0  0
    2.7889   -3.8935   -2.7293 N   0  0  0  0  0  0  0  0  0  0  0  0
   -0.1301    0.8785   -2.2130 C   0  0  0  0  0  0  0  0  0  0  0  0
   -0.0770    2.0558   -2.9911 C   0  0  0  0  0  0  0  0  0  0  0  0
   -0.9448    2.9849   -2.5765 N   0  0  0  0  0  0  0  0  0  0  0  0
   -1.5794    2.3958   -1.5448 N   0  0  0  0  0  0  0  0  0  0  0  0
   -1.1225    1.1323   -1.2877 C   0  0  0  0  0  0  0  0  0  0  0  0
   -2.6370    3.1204   -0.8422 C   0  0  0  0  0  0  0  0  0  0  0  0
   -4.0048    2.4290   -0.9762 C   0  0  0  0  0  0  0  0  0  0  0  0
   -4.4008    1.7244    0.3138 C   0  0  0  0  0  0  0  0  0  0  0  0
   -4.4810    2.6456    1.4446 N   0  0  0  0  0  0  0  0  0  0  0  0
   -3.4849    3.7138    1.4464 C   0  0  0  0  0  0  0  0  0  0  0  0
   -2.2484    3.3941    0.6171 C   0  0  0  0  0  0  0  0  0  0  0  0
    3.3294   -4.1115    1.8707 H   0  0  0  0  0  0  0  0  0  0  0  0
    4.1571   -4.5464    0.3911 H   0  0  0  0  0  0  0  0  0  0  0  0
    4.9547   -3.4642    1.5483 H   0  0  0  0  0  0  0  0  0  0  0  0
    4.0375   -2.3546   -0.5121 H   0  0  0  0  0  0  0  0  0  0  0  0
    4.8927    1.7485    1.6522 H   0  0  0  0  0  0  0  0  0  0  0  0
    3.1826    1.9636    3.4426 H   0  0  0  0  0  0  0  0  0  0  0  0
    0.6732   -0.7345   -0.1704 H   0  0  0  0  0  0  0  0  0  0  0  0
    0.8261   -0.3568   -4.4595 H   0  0  0  0  0  0  0  0  0  0  0  0
    2.2758   -4.6256   -2.2454 H   0  0  0  0  0  0  0  0  0  0  0  0
    3.6984   -3.8220   -2.2880 H   0  0  0  0  0  0  0  0  0  0  0  0
    0.5669    2.2834   -3.8327 H   0  0  0  0  0  0  0  0  0  0  0  0
   -1.5381    0.5308   -0.4922 H   0  0  0  0  0  0  0  0  0  0  0  0
   -2.7202    4.0882   -1.3564 H   0  0  0  0  0  0  0  0  0  0  0  0
   -4.7661    3.1881   -1.2062 H   0  0  0  0  0  0  0  0  0  0  0  0
   -4.0206    1.7205   -1.8125 H   0  0  0  0  0  0  0  0  0  0  0  0
   -5.3782    1.2467    0.1849 H   0  0  0  0  0  0  0  0  0  0  0  0
   -3.6859    0.9241    0.5402 H   0  0  0  0  0  0  0  0  0  0  0  0
   -4.4472    2.1200    2.3185 H   0  0  0  0  0  0  0  0  0  0  0  0
   -3.1909    3.9316    2.4796 H   0  0  0  0  0  0  0  0  0  0  0  0
   -3.9559    4.6275    1.0625 H   0  0  0  0  0  0  0  0  0  0  0  0
   -1.7277    2.5360    1.0627 H   0  0  0  0  0  0  0  0  0  0  0  0
   -1.5413    4.2329    0.6603 H   0  0  0  0  0  0  0  0  0  0  0  0
  1  2  1  0
  2  3  1  0
  3  4  2  0
  4  5  1  0
  5  6  2  0
  6  7  1  0
  7  8  2  0
  8  9  1  0
  7 10  1  0
  4 11  1  0
  2 12  1  0
 12 13  1  0
 13 14  2  0
 14 15  1  0
 15 16  2  0
 16 17  1  0
 17 18  2  0
 18 19  1  0
 15 20  1  0
 20 21  1  0
 21 22  2  0
 22 23  1  0
 23 24  1  0
 23 25  1  0
 25 26  1  0
 26 27  1  0
 27 28  1  0
 28 29  1  0
 29 30  1  0
  8  3  1  0
 18 13  1  0
 24 20  2  0
 30 25  1  0
  1 31  1  0
  1 32  1  0
  1 33  1  0
  2 34  1  6
  5 35  1  0
  6 36  1  0
 14 37  1  0
 16 38  1  0
 19 39  1  0
 19 40  1  0
 21 41  1  0
 24 42  1  0
 25 43  1  0
 26 44  1  0
 26 45  1  0
 27 46  1  0
 27 47  1  0
 28 48  1  0
 29 49  1  0
 29 50  1  0
 30 51  1  0
 30 52  1  0
M  END
>  <energy_abs>  (133) 
39.9748386482171

>  <SMILES>  (133) 
C[C@H](c1c(ccc(c1Cl)F)Cl)Oc2cc(cnc2N)c3cnn(c3)C4CCNCC4

>  <cluster_no>  (133) 
133

>  <fda_drugs_id>  (133) 
KTEIFNKAUNYNJU-GFCCVEGCSA-N

>  <initial_conformation_id>  (133) 
168

>  <minimize_method>  (133) 
MMFF

$$$$

     RDKit          3D

 52 55  0  0  0  0  0  0  0  0999 V2000
    4.1253   -4.1062    0.6436 C   0  0  0  0  0  0  0  0  0  0  0  0
    3.6644   -2.7159    0.1878 C   0  0  2  0  0  0  0  0  0  0  0  0
    4.0033   -1.6522    1.2304 C   0  0  0  0  0  0  0  0  0  0  0  0
    5.1251   -0.8053    1.0435 C   0  0  0  0  0  0  0  0  0  0  0  0
    5.4655    0.1874    1.9770 C   0  0  0  0  0  0  0  0  0  0  0  0
    4.7116    0.3458    3.1356 C   0  0  0  0  0  0  0  0  0  0  0  0
    3.6251   -0.4939    3.3579 C   0  0  0  0  0  0  0  0  0  0  0  0
    3.2597   -1.4789    2.4234 C   0  0  0  0  0  0  0  0  0  0  0  0
    1.8792   -2.4465    2.8207 Cl  0  0  0  0  0  0  0  0  0  0  0  0
    2.9329   -0.3388    4.4979 F   0  0  0  0  0  0  0  0  0  0  0  0
    6.1746   -0.9353   -0.3285 Cl  0  0  0  0  0  0  0  0  0  0  0  0
    2.2482   -2.8013   -0.0877 O   0  0  0  0  0  0  0  0  0  0  0  0
    1.8402   -1.9784   -1.1035 C   0  0  0  0  0  0  0  0  0  0  0  0
    1.0839   -0.8588   -0.7573 C   0  0  0  0  0  0  0  0  0  0  0  0
    0.5109   -0.0784   -1.7635 C   0  0  0  0  0  0  0  0  0  0  0  0
    0.7757   -0.4512   -3.0771 C   0  0  0  0  0  0  0  0  0  0  0  0
    1.4984   -1.5430   -3.4377 N   0  0  0  0  0  0  0  0  0  0  0  0
    1.9880   -2.3187   -2.4554 C   0  0  0  0  0  0  0  0  0  0  0  0
    2.6023   -3.5180   -2.8443 N   0  0  0  0  0  0  0  0  0  0  0  0
   -0.3946    1.0057   -1.4374 C   0  0  0  0  0  0  0  0  0  0  0  0
   -0.4527    1.8742   -0.3235 C   0  0  0  0  0  0  0  0  0  0  0  0
   -1.5407    2.6512   -0.3307 N   0  0  0  0  0  0  0  0  0  0  0  0
   -2.1979    2.2706   -1.4450 N   0  0  0  0  0  0  0  0  0  0  0  0
   -1.5337    1.3091   -2.1567 C   0  0  0  0  0  0  0  0  0  0  0  0
   -3.5484    2.7529   -1.7223 C   0  0  0  0  0  0  0  0  0  0  0  0
   -4.5680    1.9086   -0.9422 C   0  0  0  0  0  0  0  0  0  0  0  0
   -5.9119    2.6182   -0.8771 C   0  0  0  0  0  0  0  0  0  0  0  0
   -5.8506    3.9434   -0.2585 N   0  0  0  0  0  0  0  0  0  0  0  0
   -4.5084    4.5250   -0.2009 C   0  0  0  0  0  0  0  0  0  0  0  0
   -3.7225    4.2610   -1.4797 C   0  0  0  0  0  0  0  0  0  0  0  0
    3.8497   -4.8596   -0.1095 H   0  0  0  0  0  0  0  0  0  0  0  0
    5.2114   -4.1506    0.7999 H   0  0  0  0  0  0  0  0  0  0  0  0
    3.6339   -4.4122    1.5741 H   0  0  0  0  0  0  0  0  0  0  0  0
    4.1862   -2.5086   -0.7504 H   0  0  0  0  0  0  0  0  0  0  0  0
    6.3197    0.8474    1.8016 H   0  0  0  0  0  0  0  0  0  0  0  0
    4.9688    1.1068    3.8705 H   0  0  0  0  0  0  0  0  0  0  0  0
    0.8887   -0.6529    0.2924 H   0  0  0  0  0  0  0  0  0  0  0  0
    0.3802    0.1146   -3.9187 H   0  0  0  0  0  0  0  0  0  0  0  0
    2.1310   -4.2828   -2.3698 H   0  0  0  0  0  0  0  0  0  0  0  0
    3.5723   -3.5206   -2.5636 H   0  0  0  0  0  0  0  0  0  0  0  0
    0.2417    1.9598    0.5045 H   0  0  0  0  0  0  0  0  0  0  0  0
   -1.9567    0.8859   -3.0582 H   0  0  0  0  0  0  0  0  0  0  0  0
   -3.7013    2.5805   -2.7975 H   0  0  0  0  0  0  0  0  0  0  0  0
   -4.6805    0.9240   -1.4196 H   0  0  0  0  0  0  0  0  0  0  0  0
   -4.2160    1.7111    0.0824 H   0  0  0  0  0  0  0  0  0  0  0  0
   -6.6308    2.0008   -0.3250 H   0  0  0  0  0  0  0  0  0  0  0  0
   -6.3158    2.7248   -1.8916 H   0  0  0  0  0  0  0  0  0  0  0  0
   -6.2262    3.8986    0.6904 H   0  0  0  0  0  0  0  0  0  0  0  0
   -4.6080    5.6045   -0.0475 H   0  0  0  0  0  0  0  0  0  0  0  0
   -3.9669    4.1331    0.6671 H   0  0  0  0  0  0  0  0  0  0  0  0
   -2.7630    4.7882   -1.4483 H   0  0  0  0  0  0  0  0  0  0  0  0
   -4.2765    4.6912   -2.3254 H   0  0  0  0  0  0  0  0  0  0  0  0
  1  2  1  0
  2  3  1  0
  3  4  2  0
  4  5  1  0
  5  6  2  0
  6  7  1  0
  7  8  2  0
  8  9  1  0
  7 10  1  0
  4 11  1  0
  2 12  1  0
 12 13  1  0
 13 14  2  0
 14 15  1  0
 15 16  2  0
 16 17  1  0
 17 18  2  0
 18 19  1  0
 15 20  1  0
 20 21  1  0
 21 22  2  0
 22 23  1  0
 23 24  1  0
 23 25  1  0
 25 26  1  0
 26 27  1  0
 27 28  1  0
 28 29  1  0
 29 30  1  0
  8  3  1  0
 18 13  1  0
 24 20  2  0
 30 25  1  0
  1 31  1  0
  1 32  1  0
  1 33  1  0
  2 34  1  6
  5 35  1  0
  6 36  1  0
 14 37  1  0
 16 38  1  0
 19 39  1  0
 19 40  1  0
 21 41  1  0
 24 42  1  0
 25 43  1  0
 26 44  1  0
 26 45  1  0
 27 46  1  0
 27 47  1  0
 28 48  1  0
 29 49  1  0
 29 50  1  0
 30 51  1  0
 30 52  1  0
M  END
>  <energy_abs>  (134) 
41.34009822752192

>  <SMILES>  (134) 
C[C@H](c1c(ccc(c1Cl)F)Cl)Oc2cc(cnc2N)c3cnn(c3)C4CCNCC4

>  <cluster_no>  (134) 
134

>  <fda_drugs_id>  (134) 
KTEIFNKAUNYNJU-GFCCVEGCSA-N

>  <initial_conformation_id>  (134) 
167

>  <minimize_method>  (134) 
MMFF

$$$$

     RDKit          3D

 52 55  0  0  0  0  0  0  0  0999 V2000
    1.9143   -2.4892    1.1246 C   0  0  0  0  0  0  0  0  0  0  0  0
    3.1810   -1.9739    0.4267 C   0  0  2  0  0  0  0  0  0  0  0  0
    4.3966   -2.0793    1.3429 C   0  0  0  0  0  0  0  0  0  0  0  0
    5.4139   -3.0238    1.0863 C   0  0  0  0  0  0  0  0  0  0  0  0
    6.5261   -3.1526    1.9317 C   0  0  0  0  0  0  0  0  0  0  0  0
    6.6504   -2.3433    3.0565 C   0  0  0  0  0  0  0  0  0  0  0  0
    5.6725   -1.3973    3.3194 C   0  0  0  0  0  0  0  0  0  0  0  0
    4.5556   -1.2586    2.4851 C   0  0  0  0  0  0  0  0  0  0  0  0
    3.4076   -0.0398    2.9309 Cl  0  0  0  0  0  0  0  0  0  0  0  0
    5.8236   -0.6132    4.4000 F   0  0  0  0  0  0  0  0  0  0  0  0
    5.3810   -4.0879   -0.2825 Cl  0  0  0  0  0  0  0  0  0  0  0  0
    3.1095   -0.6160   -0.0379 O   0  0  0  0  0  0  0  0  0  0  0  0
    2.0781   -0.3643   -0.8979 C   0  0  0  0  0  0  0  0  0  0  0  0
    0.9693    0.3096   -0.3795 C   0  0  0  0  0  0  0  0  0  0  0  0
   -0.1047    0.6284   -1.2104 C   0  0  0  0  0  0  0  0  0  0  0  0
    0.0171    0.2470   -2.5452 C   0  0  0  0  0  0  0  0  0  0  0  0
    1.1021   -0.3719   -3.0828 N   0  0  0  0  0  0  0  0  0  0  0  0
    2.1327   -0.6465   -2.2667 C   0  0  0  0  0  0  0  0  0  0  0  0
    3.2762   -1.1991   -2.8586 N   0  0  0  0  0  0  0  0  0  0  0  0
   -1.2668    1.3307   -0.6906 C   0  0  0  0  0  0  0  0  0  0  0  0
   -1.5095    1.8909    0.5851 C   0  0  0  0  0  0  0  0  0  0  0  0
   -2.7020    2.4787    0.6755 N   0  0  0  0  0  0  0  0  0  0  0  0
   -3.2405    2.3205   -0.5480 N   0  0  0  0  0  0  0  0  0  0  0  0
   -2.4222    1.6105   -1.3940 C   0  0  0  0  0  0  0  0  0  0  0  0
   -4.5403    2.9295   -0.8166 C   0  0  0  0  0  0  0  0  0  0  0  0
   -4.5183    3.9629   -1.9563 C   0  0  0  0  0  0  0  0  0  0  0  0
   -4.7055    3.3397   -3.3352 C   0  0  0  0  0  0  0  0  0  0  0  0
   -5.8666    2.4555   -3.3868 N   0  0  0  0  0  0  0  0  0  0  0  0
   -5.7790    1.3772   -2.4056 C   0  0  0  0  0  0  0  0  0  0  0  0
   -5.6674    1.9084   -0.9814 C   0  0  0  0  0  0  0  0  0  0  0  0
    1.5335   -1.7955    1.8796 H   0  0  0  0  0  0  0  0  0  0  0  0
    1.1027   -2.6238    0.3971 H   0  0  0  0  0  0  0  0  0  0  0  0
    2.0916   -3.4604    1.6000 H   0  0  0  0  0  0  0  0  0  0  0  0
    3.3244   -2.6054   -0.4500 H   0  0  0  0  0  0  0  0  0  0  0  0
    7.3089   -3.8757    1.7108 H   0  0  0  0  0  0  0  0  0  0  0  0
    7.5054   -2.4313    3.7187 H   0  0  0  0  0  0  0  0  0  0  0  0
    0.9651    0.5737    0.6752 H   0  0  0  0  0  0  0  0  0  0  0  0
   -0.7673    0.4423   -3.2711 H   0  0  0  0  0  0  0  0  0  0  0  0
    3.4680   -2.1213   -2.4788 H   0  0  0  0  0  0  0  0  0  0  0  0
    4.0684   -0.6042   -2.6332 H   0  0  0  0  0  0  0  0  0  0  0  0
   -0.8653    1.9038    1.4554 H   0  0  0  0  0  0  0  0  0  0  0  0
   -2.7240    1.3749   -2.4016 H   0  0  0  0  0  0  0  0  0  0  0  0
   -4.7632    3.4941    0.0993 H   0  0  0  0  0  0  0  0  0  0  0  0
   -5.3432    4.6741   -1.7867 H   0  0  0  0  0  0  0  0  0  0  0  0
   -3.5923    4.5511   -1.9379 H   0  0  0  0  0  0  0  0  0  0  0  0
   -3.8108    2.7972   -3.6532 H   0  0  0  0  0  0  0  0  0  0  0  0
   -4.8438    4.1411   -4.0714 H   0  0  0  0  0  0  0  0  0  0  0  0
   -6.7162    2.9992   -3.2262 H   0  0  0  0  0  0  0  0  0  0  0  0
   -4.9401    0.7142   -2.6449 H   0  0  0  0  0  0  0  0  0  0  0  0
   -6.6823    0.7603   -2.4882 H   0  0  0  0  0  0  0  0  0  0  0  0
   -5.5433    1.0707   -0.2799 H   0  0  0  0  0  0  0  0  0  0  0  0
   -6.6137    2.3995   -0.7235 H   0  0  0  0  0  0  0  0  0  0  0  0
  1  2  1  0
  2  3  1  0
  3  4  2  0
  4  5  1  0
  5  6  2  0
  6  7  1  0
  7  8  2  0
  8  9  1  0
  7 10  1  0
  4 11  1  0
  2 12  1  0
 12 13  1  0
 13 14  2  0
 14 15  1  0
 15 16  2  0
 16 17  1  0
 17 18  2  0
 18 19  1  0
 15 20  1  0
 20 21  1  0
 21 22  2  0
 22 23  1  0
 23 24  1  0
 23 25  1  0
 25 26  1  0
 26 27  1  0
 27 28  1  0
 28 29  1  0
 29 30  1  0
  8  3  1  0
 18 13  1  0
 24 20  2  0
 30 25  1  0
  1 31  1  0
  1 32  1  0
  1 33  1  0
  2 34  1  6
  5 35  1  0
  6 36  1  0
 14 37  1  0
 16 38  1  0
 19 39  1  0
 19 40  1  0
 21 41  1  0
 24 42  1  0
 25 43  1  0
 26 44  1  0
 26 45  1  0
 27 46  1  0
 27 47  1  0
 28 48  1  0
 29 49  1  0
 29 50  1  0
 30 51  1  0
 30 52  1  0
M  END
>  <energy_abs>  (135) 
39.09038856332936

>  <SMILES>  (135) 
C[C@H](c1c(ccc(c1Cl)F)Cl)Oc2cc(cnc2N)c3cnn(c3)C4CCNCC4

>  <cluster_no>  (135) 
135

>  <fda_drugs_id>  (135) 
KTEIFNKAUNYNJU-GFCCVEGCSA-N

>  <initial_conformation_id>  (135) 
164

>  <minimize_method>  (135) 
MMFF

$$$$

     RDKit          3D

 52 55  0  0  0  0  0  0  0  0999 V2000
    2.0526   -2.4990    1.5407 C   0  0  0  0  0  0  0  0  0  0  0  0
    3.1993   -1.9906    0.6564 C   0  0  2  0  0  0  0  0  0  0  0  0
    4.5327   -1.9936    1.4095 C   0  0  0  0  0  0  0  0  0  0  0  0
    5.5539   -2.9128    1.0754 C   0  0  0  0  0  0  0  0  0  0  0  0
    6.7752   -2.9377    1.7690 C   0  0  0  0  0  0  0  0  0  0  0  0
    7.0093   -2.0552    2.8186 C   0  0  0  0  0  0  0  0  0  0  0  0
    6.0252   -1.1396    3.1602 C   0  0  0  0  0  0  0  0  0  0  0  0
    4.8003   -1.0974    2.4751 C   0  0  0  0  0  0  0  0  0  0  0  0
    3.6538    0.0923    3.0175 Cl  0  0  0  0  0  0  0  0  0  0  0  0
    6.2660   -0.3010    4.1834 F   0  0  0  0  0  0  0  0  0  0  0  0
    5.3895   -4.0669   -0.2107 Cl  0  0  0  0  0  0  0  0  0  0  0  0
    3.0028   -0.6622    0.1460 O   0  0  0  0  0  0  0  0  0  0  0  0
    1.9639   -0.5493   -0.7382 C   0  0  0  0  0  0  0  0  0  0  0  0
    0.7873    0.0351   -0.2725 C   0  0  0  0  0  0  0  0  0  0  0  0
   -0.2857    0.2319   -1.1435 C   0  0  0  0  0  0  0  0  0  0  0  0
   -0.0947   -0.1731   -2.4630 C   0  0  0  0  0  0  0  0  0  0  0  0
    1.0549   -0.7116   -2.9500 N   0  0  0  0  0  0  0  0  0  0  0  0
    2.0812   -0.8711   -2.0955 C   0  0  0  0  0  0  0  0  0  0  0  0
    3.2874   -1.3425   -2.6376 N   0  0  0  0  0  0  0  0  0  0  0  0
   -1.5207    0.8369   -0.6834 C   0  0  0  0  0  0  0  0  0  0  0  0
   -2.0575    0.9623    0.6201 C   0  0  0  0  0  0  0  0  0  0  0  0
   -3.2280    1.6084    0.6427 N   0  0  0  0  0  0  0  0  0  0  0  0
   -3.4445    1.9194   -0.6497 N   0  0  0  0  0  0  0  0  0  0  0  0
   -2.4538    1.4712   -1.4811 C   0  0  0  0  0  0  0  0  0  0  0  0
   -4.6297    2.6887   -1.0085 C   0  0  0  0  0  0  0  0  0  0  0  0
   -4.2845    4.0773   -1.5721 C   0  0  0  0  0  0  0  0  0  0  0  0
   -4.4064    4.1271   -3.0910 C   0  0  0  0  0  0  0  0  0  0  0  0
   -5.6962    3.6694   -3.6107 N   0  0  0  0  0  0  0  0  0  0  0  0
   -6.4716    2.8292   -2.7055 C   0  0  0  0  0  0  0  0  0  0  0  0
   -5.5771    1.8869   -1.9127 C   0  0  0  0  0  0  0  0  0  0  0  0
    1.1567   -2.6843    0.9340 H   0  0  0  0  0  0  0  0  0  0  0  0
    2.3267   -3.4424    2.0288 H   0  0  0  0  0  0  0  0  0  0  0  0
    1.7518   -1.7756    2.3092 H   0  0  0  0  0  0  0  0  0  0  0  0
    3.2479   -2.6713   -0.1966 H   0  0  0  0  0  0  0  0  0  0  0  0
    7.5455   -3.6635    1.5055 H   0  0  0  0  0  0  0  0  0  0  0  0
    7.9465   -2.0709    3.3696 H   0  0  0  0  0  0  0  0  0  0  0  0
    0.7342    0.3463    0.7643 H   0  0  0  0  0  0  0  0  0  0  0  0
   -0.8785   -0.0758   -3.2113 H   0  0  0  0  0  0  0  0  0  0  0  0
    3.5558   -2.2161   -2.1958 H   0  0  0  0  0  0  0  0  0  0  0  0
    4.0136   -0.6594   -2.4311 H   0  0  0  0  0  0  0  0  0  0  0  0
   -1.6494    0.6067    1.5581 H   0  0  0  0  0  0  0  0  0  0  0  0
   -2.4939    1.6497   -2.5472 H   0  0  0  0  0  0  0  0  0  0  0  0
   -5.1545    2.8672   -0.0601 H   0  0  0  0  0  0  0  0  0  0  0  0
   -3.2797    4.3923   -1.2679 H   0  0  0  0  0  0  0  0  0  0  0  0
   -4.9765    4.8166   -1.1456 H   0  0  0  0  0  0  0  0  0  0  0  0
   -3.6171    3.5103   -3.5461 H   0  0  0  0  0  0  0  0  0  0  0  0
   -4.2275    5.1535   -3.4379 H   0  0  0  0  0  0  0  0  0  0  0  0
   -6.2650    4.4562   -3.9376 H   0  0  0  0  0  0  0  0  0  0  0  0
   -7.0567    3.4551   -2.0198 H   0  0  0  0  0  0  0  0  0  0  0  0
   -7.1923    2.2458   -3.2962 H   0  0  0  0  0  0  0  0  0  0  0  0
   -6.1885    1.2126   -1.2990 H   0  0  0  0  0  0  0  0  0  0  0  0
   -5.0238    1.2426   -2.6091 H   0  0  0  0  0  0  0  0  0  0  0  0
  1  2  1  0
  2  3  1  0
  3  4  2  0
  4  5  1  0
  5  6  2  0
  6  7  1  0
  7  8  2  0
  8  9  1  0
  7 10  1  0
  4 11  1  0
  2 12  1  0
 12 13  1  0
 13 14  2  0
 14 15  1  0
 15 16  2  0
 16 17  1  0
 17 18  2  0
 18 19  1  0
 15 20  1  0
 20 21  1  0
 21 22  2  0
 22 23  1  0
 23 24  1  0
 23 25  1  0
 25 26  1  0
 26 27  1  0
 27 28  1  0
 28 29  1  0
 29 30  1  0
  8  3  1  0
 18 13  1  0
 24 20  2  0
 30 25  1  0
  1 31  1  0
  1 32  1  0
  1 33  1  0
  2 34  1  6
  5 35  1  0
  6 36  1  0
 14 37  1  0
 16 38  1  0
 19 39  1  0
 19 40  1  0
 21 41  1  0
 24 42  1  0
 25 43  1  0
 26 44  1  0
 26 45  1  0
 27 46  1  0
 27 47  1  0
 28 48  1  0
 29 49  1  0
 29 50  1  0
 30 51  1  0
 30 52  1  0
M  END
>  <energy_abs>  (136) 
42.23696884990537

>  <SMILES>  (136) 
C[C@H](c1c(ccc(c1Cl)F)Cl)Oc2cc(cnc2N)c3cnn(c3)C4CCNCC4

>  <cluster_no>  (136) 
136

>  <fda_drugs_id>  (136) 
KTEIFNKAUNYNJU-GFCCVEGCSA-N

>  <initial_conformation_id>  (136) 
163

>  <minimize_method>  (136) 
MMFF

$$$$

     RDKit          3D

 52 55  0  0  0  0  0  0  0  0999 V2000
    2.2717    0.1585    2.2104 C   0  0  0  0  0  0  0  0  0  0  0  0
    2.9663   -0.8682    1.3082 C   0  0  2  0  0  0  0  0  0  0  0  0
    4.4143   -1.1031    1.7379 C   0  0  0  0  0  0  0  0  0  0  0  0
    5.4311   -0.1346    1.5518 C   0  0  0  0  0  0  0  0  0  0  0  0
    6.7523   -0.3711    1.9689 C   0  0  0  0  0  0  0  0  0  0  0  0
    7.0953   -1.5715    2.5808 C   0  0  0  0  0  0  0  0  0  0  0  0
    6.1152   -2.5346    2.7737 C   0  0  0  0  0  0  0  0  0  0  0  0
    4.7910   -2.3160    2.3643 C   0  0  0  0  0  0  0  0  0  0  0  0
    3.6576   -3.5961    2.6649 Cl  0  0  0  0  0  0  0  0  0  0  0  0
    6.4653   -3.6890    3.3639 F   0  0  0  0  0  0  0  0  0  0  0  0
    5.1525    1.4037    0.8025 Cl  0  0  0  0  0  0  0  0  0  0  0  0
    2.9564   -0.4428   -0.0678 O   0  0  0  0  0  0  0  0  0  0  0  0
    1.8686   -0.9190   -0.7535 C   0  0  0  0  0  0  0  0  0  0  0  0
    0.7463   -0.1014   -0.8810 C   0  0  0  0  0  0  0  0  0  0  0  0
   -0.3647   -0.5624   -1.5884 C   0  0  0  0  0  0  0  0  0  0  0  0
   -0.2644   -1.8332   -2.1502 C   0  0  0  0  0  0  0  0  0  0  0  0
    0.8303   -2.6334   -2.0657 N   0  0  0  0  0  0  0  0  0  0  0  0
    1.8931   -2.1659   -1.3903 C   0  0  0  0  0  0  0  0  0  0  0  0
    3.0256   -2.9911   -1.3213 N   0  0  0  0  0  0  0  0  0  0  0  0
   -1.5757    0.2278   -1.7222 C   0  0  0  0  0  0  0  0  0  0  0  0
   -2.9124   -0.1616   -1.9749 C   0  0  0  0  0  0  0  0  0  0  0  0
   -3.7546    0.8749   -2.0209 N   0  0  0  0  0  0  0  0  0  0  0  0
   -2.9629    1.9410   -1.7971 N   0  0  0  0  0  0  0  0  0  0  0  0
   -1.6481    1.6042   -1.6202 C   0  0  0  0  0  0  0  0  0  0  0  0
   -3.5284    3.2882   -1.7395 C   0  0  0  0  0  0  0  0  0  0  0  0
   -4.4277    3.6120   -2.9466 C   0  0  0  0  0  0  0  0  0  0  0  0
   -5.9050    3.4771   -2.5859 C   0  0  0  0  0  0  0  0  0  0  0  0
   -6.3093    4.3634   -1.4929 N   0  0  0  0  0  0  0  0  0  0  0  0
   -5.2559    4.6544   -0.5223 C   0  0  0  0  0  0  0  0  0  0  0  0
   -4.2388    3.5225   -0.3976 C   0  0  0  0  0  0  0  0  0  0  0  0
    2.4085   -0.0842    3.2697 H   0  0  0  0  0  0  0  0  0  0  0  0
    1.1938    0.1760    2.0079 H   0  0  0  0  0  0  0  0  0  0  0  0
    2.6296    1.1759    2.0358 H   0  0  0  0  0  0  0  0  0  0  0  0
    2.3933   -1.7995    1.3901 H   0  0  0  0  0  0  0  0  0  0  0  0
    7.5213    0.3854    1.8135 H   0  0  0  0  0  0  0  0  0  0  0  0
    8.1149   -1.7594    2.9055 H   0  0  0  0  0  0  0  0  0  0  0  0
    0.7484    0.8773   -0.4131 H   0  0  0  0  0  0  0  0  0  0  0  0
   -1.0803   -2.2718   -2.7197 H   0  0  0  0  0  0  0  0  0  0  0  0
    3.8332   -2.4498   -1.6204 H   0  0  0  0  0  0  0  0  0  0  0  0
    3.1835   -3.2734   -0.3602 H   0  0  0  0  0  0  0  0  0  0  0  0
   -3.3131   -1.1578   -2.1186 H   0  0  0  0  0  0  0  0  0  0  0  0
   -0.8956    2.3618   -1.4422 H   0  0  0  0  0  0  0  0  0  0  0  0
   -2.6639    3.9663   -1.7971 H   0  0  0  0  0  0  0  0  0  0  0  0
   -4.1877    2.9797   -3.8104 H   0  0  0  0  0  0  0  0  0  0  0  0
   -4.2398    4.6480   -3.2653 H   0  0  0  0  0  0  0  0  0  0  0  0
   -6.1333    2.4413   -2.3045 H   0  0  0  0  0  0  0  0  0  0  0  0
   -6.5212    3.6971   -3.4656 H   0  0  0  0  0  0  0  0  0  0  0  0
   -6.7003    5.2342   -1.8583 H   0  0  0  0  0  0  0  0  0  0  0  0
   -4.7375    5.5786   -0.8126 H   0  0  0  0  0  0  0  0  0  0  0  0
   -5.7193    4.8433    0.4522 H   0  0  0  0  0  0  0  0  0  0  0  0
   -3.4946    3.7650    0.3746 H   0  0  0  0  0  0  0  0  0  0  0  0
   -4.7505    2.6117   -0.0508 H   0  0  0  0  0  0  0  0  0  0  0  0
  1  2  1  0
  2  3  1  0
  3  4  2  0
  4  5  1  0
  5  6  2  0
  6  7  1  0
  7  8  2  0
  8  9  1  0
  7 10  1  0
  4 11  1  0
  2 12  1  0
 12 13  1  0
 13 14  2  0
 14 15  1  0
 15 16  2  0
 16 17  1  0
 17 18  2  0
 18 19  1  0
 15 20  1  0
 20 21  1  0
 21 22  2  0
 22 23  1  0
 23 24  1  0
 23 25  1  0
 25 26  1  0
 26 27  1  0
 27 28  1  0
 28 29  1  0
 29 30  1  0
  8  3  1  0
 18 13  1  0
 24 20  2  0
 30 25  1  0
  1 31  1  0
  1 32  1  0
  1 33  1  0
  2 34  1  6
  5 35  1  0
  6 36  1  0
 14 37  1  0
 16 38  1  0
 19 39  1  0
 19 40  1  0
 21 41  1  0
 24 42  1  0
 25 43  1  0
 26 44  1  0
 26 45  1  0
 27 46  1  0
 27 47  1  0
 28 48  1  0
 29 49  1  0
 29 50  1  0
 30 51  1  0
 30 52  1  0
M  END
>  <energy_abs>  (137) 
40.76599230284575

>  <SMILES>  (137) 
C[C@H](c1c(ccc(c1Cl)F)Cl)Oc2cc(cnc2N)c3cnn(c3)C4CCNCC4

>  <cluster_no>  (137) 
137

>  <fda_drugs_id>  (137) 
KTEIFNKAUNYNJU-GFCCVEGCSA-N

>  <initial_conformation_id>  (137) 
162

>  <minimize_method>  (137) 
MMFF

$$$$

     RDKit          3D

 52 55  0  0  0  0  0  0  0  0999 V2000
    3.9704    1.0299   -1.1769 C   0  0  0  0  0  0  0  0  0  0  0  0
    3.2121    0.0493   -0.2791 C   0  0  2  0  0  0  0  0  0  0  0  0
    4.0276   -0.3463    0.9491 C   0  0  0  0  0  0  0  0  0  0  0  0
    3.6950    0.1704    2.2248 C   0  0  0  0  0  0  0  0  0  0  0  0
    4.4264   -0.1768    3.3710 C   0  0  0  0  0  0  0  0  0  0  0  0
    5.5084   -1.0424    3.2778 C   0  0  0  0  0  0  0  0  0  0  0  0
    5.8607   -1.5521    2.0370 C   0  0  0  0  0  0  0  0  0  0  0  0
    5.1420   -1.2154    0.8802 C   0  0  0  0  0  0  0  0  0  0  0  0
    5.6918   -1.9239   -0.6034 Cl  0  0  0  0  0  0  0  0  0  0  0  0
    6.9160   -2.3796    1.9695 F   0  0  0  0  0  0  0  0  0  0  0  0
    2.3825    1.2741    2.4767 Cl  0  0  0  0  0  0  0  0  0  0  0  0
    2.8561   -1.1062   -1.0627 O   0  0  0  0  0  0  0  0  0  0  0  0
    1.5812   -1.5599   -0.8346 C   0  0  0  0  0  0  0  0  0  0  0  0
    0.4654   -0.7656   -1.1058 C   0  0  0  0  0  0  0  0  0  0  0  0
   -0.8165   -1.2729   -0.8841 C   0  0  0  0  0  0  0  0  0  0  0  0
   -0.8974   -2.5833   -0.4191 C   0  0  0  0  0  0  0  0  0  0  0  0
    0.1691   -3.3893   -0.1854 N   0  0  0  0  0  0  0  0  0  0  0  0
    1.3922   -2.8810   -0.4091 C   0  0  0  0  0  0  0  0  0  0  0  0
    2.4921   -3.7316   -0.2087 N   0  0  0  0  0  0  0  0  0  0  0  0
   -2.0122   -0.4870   -1.1313 C   0  0  0  0  0  0  0  0  0  0  0  0
   -3.3548   -0.8813   -1.3356 C   0  0  0  0  0  0  0  0  0  0  0  0
   -4.1770    0.1542   -1.5208 N   0  0  0  0  0  0  0  0  0  0  0  0
   -3.3674    1.2266   -1.4391 N   0  0  0  0  0  0  0  0  0  0  0  0
   -2.0620    0.8910   -1.2031 C   0  0  0  0  0  0  0  0  0  0  0  0
   -3.9353    2.5646   -1.5847 C   0  0  0  0  0  0  0  0  0  0  0  0
   -3.8324    3.3912   -0.2930 C   0  0  0  0  0  0  0  0  0  0  0  0
   -2.6481    4.3513   -0.3162 C   0  0  0  0  0  0  0  0  0  0  0  0
   -2.6039    5.2272   -1.4844 N   0  0  0  0  0  0  0  0  0  0  0  0
   -3.4296    4.8026   -2.6110 C   0  0  0  0  0  0  0  0  0  0  0  0
   -3.3675    3.2947   -2.8096 C   0  0  0  0  0  0  0  0  0  0  0  0
    3.3357    1.3360   -2.0157 H   0  0  0  0  0  0  0  0  0  0  0  0
    4.2680    1.9253   -0.6225 H   0  0  0  0  0  0  0  0  0  0  0  0
    4.8667    0.5865   -1.6190 H   0  0  0  0  0  0  0  0  0  0  0  0
    2.3048    0.5778    0.0250 H   0  0  0  0  0  0  0  0  0  0  0  0
    4.1518    0.2291    4.3439 H   0  0  0  0  0  0  0  0  0  0  0  0
    6.0821   -1.3192    4.1583 H   0  0  0  0  0  0  0  0  0  0  0  0
    0.6034    0.2316   -1.5116 H   0  0  0  0  0  0  0  0  0  0  0  0
   -1.8527   -3.0568   -0.2077 H   0  0  0  0  0  0  0  0  0  0  0  0
    3.1153   -3.3016    0.4655 H   0  0  0  0  0  0  0  0  0  0  0  0
    3.0136   -3.7694   -1.0826 H   0  0  0  0  0  0  0  0  0  0  0  0
   -3.7711   -1.8803   -1.3621 H   0  0  0  0  0  0  0  0  0  0  0  0
   -1.2996    1.6508   -1.1044 H   0  0  0  0  0  0  0  0  0  0  0  0
   -5.0081    2.4022   -1.7640 H   0  0  0  0  0  0  0  0  0  0  0  0
   -3.7737    2.7451    0.5928 H   0  0  0  0  0  0  0  0  0  0  0  0
   -4.7528    3.9814   -0.1788 H   0  0  0  0  0  0  0  0  0  0  0  0
   -1.7120    3.7858   -0.2794 H   0  0  0  0  0  0  0  0  0  0  0  0
   -2.6617    4.9662    0.5916 H   0  0  0  0  0  0  0  0  0  0  0  0
   -2.8427    6.1850   -1.2240 H   0  0  0  0  0  0  0  0  0  0  0  0
   -4.4680    5.1207   -2.4552 H   0  0  0  0  0  0  0  0  0  0  0  0
   -3.0735    5.3074   -3.5162 H   0  0  0  0  0  0  0  0  0  0  0  0
   -2.3290    3.0011   -3.0108 H   0  0  0  0  0  0  0  0  0  0  0  0
   -3.9384    3.0098   -3.7025 H   0  0  0  0  0  0  0  0  0  0  0  0
  1  2  1  0
  2  3  1  0
  3  4  2  0
  4  5  1  0
  5  6  2  0
  6  7  1  0
  7  8  2  0
  8  9  1  0
  7 10  1  0
  4 11  1  0
  2 12  1  0
 12 13  1  0
 13 14  2  0
 14 15  1  0
 15 16  2  0
 16 17  1  0
 17 18  2  0
 18 19  1  0
 15 20  1  0
 20 21  1  0
 21 22  2  0
 22 23  1  0
 23 24  1  0
 23 25  1  0
 25 26  1  0
 26 27  1  0
 27 28  1  0
 28 29  1  0
 29 30  1  0
  8  3  1  0
 18 13  1  0
 24 20  2  0
 30 25  1  0
  1 31  1  0
  1 32  1  0
  1 33  1  0
  2 34  1  1
  5 35  1  0
  6 36  1  0
 14 37  1  0
 16 38  1  0
 19 39  1  0
 19 40  1  0
 21 41  1  0
 24 42  1  0
 25 43  1  0
 26 44  1  0
 26 45  1  0
 27 46  1  0
 27 47  1  0
 28 48  1  0
 29 49  1  0
 29 50  1  0
 30 51  1  0
 30 52  1  0
M  END
>  <energy_abs>  (138) 
39.25154188953933

>  <SMILES>  (138) 
C[C@H](c1c(ccc(c1Cl)F)Cl)Oc2cc(cnc2N)c3cnn(c3)C4CCNCC4

>  <cluster_no>  (138) 
138

>  <fda_drugs_id>  (138) 
KTEIFNKAUNYNJU-GFCCVEGCSA-N

>  <initial_conformation_id>  (138) 
160

>  <minimize_method>  (138) 
MMFF

$$$$

     RDKit          3D

 52 55  0  0  0  0  0  0  0  0999 V2000
    4.6687   -3.5634    1.0459 C   0  0  0  0  0  0  0  0  0  0  0  0
    3.7359   -2.5588    0.3616 C   0  0  2  0  0  0  0  0  0  0  0  0
    4.0968   -1.1251    0.7348 C   0  0  0  0  0  0  0  0  0  0  0  0
    4.7946   -0.3046   -0.1820 C   0  0  0  0  0  0  0  0  0  0  0  0
    5.1136    1.0278    0.1207 C   0  0  0  0  0  0  0  0  0  0  0  0
    4.7569    1.5726    1.3467 C   0  0  0  0  0  0  0  0  0  0  0  0
    4.1034    0.7764    2.2766 C   0  0  0  0  0  0  0  0  0  0  0  0
    3.7763   -0.5574    1.9904 C   0  0  0  0  0  0  0  0  0  0  0  0
    2.9668   -1.4366    3.2415 Cl  0  0  0  0  0  0  0  0  0  0  0  0
    3.7899    1.3184    3.4641 F   0  0  0  0  0  0  0  0  0  0  0  0
    5.3235   -0.8765   -1.7293 Cl  0  0  0  0  0  0  0  0  0  0  0  0
    2.3799   -2.9075    0.7134 O   0  0  0  0  0  0  0  0  0  0  0  0
    1.4894   -2.5822   -0.2764 C   0  0  0  0  0  0  0  0  0  0  0  0
    0.8260   -1.3582   -0.2112 C   0  0  0  0  0  0  0  0  0  0  0  0
   -0.1221   -1.0380   -1.1839 C   0  0  0  0  0  0  0  0  0  0  0  0
   -0.3516   -1.9897   -2.1753 C   0  0  0  0  0  0  0  0  0  0  0  0
    0.2600   -3.2003   -2.2414 N   0  0  0  0  0  0  0  0  0  0  0  0
    1.1557   -3.4975   -1.2835 C   0  0  0  0  0  0  0  0  0  0  0  0
    1.7348   -4.7757   -1.3194 N   0  0  0  0  0  0  0  0  0  0  0  0
   -0.8366    0.2231   -1.1349 C   0  0  0  0  0  0  0  0  0  0  0  0
   -0.4824    1.4624   -0.5559 C   0  0  0  0  0  0  0  0  0  0  0  0
   -1.4417    2.3829   -0.6742 N   0  0  0  0  0  0  0  0  0  0  0  0
   -2.4264    1.7403   -1.3237 N   0  0  0  0  0  0  0  0  0  0  0  0
   -2.1023    0.4457   -1.6361 C   0  0  0  0  0  0  0  0  0  0  0  0
   -3.7006    2.3943   -1.6048 C   0  0  0  0  0  0  0  0  0  0  0  0
   -4.6145    2.4181   -0.3738 C   0  0  0  0  0  0  0  0  0  0  0  0
   -4.3232    3.5982    0.5492 C   0  0  0  0  0  0  0  0  0  0  0  0
   -4.3782    4.8657   -0.1788 N   0  0  0  0  0  0  0  0  0  0  0  0
   -3.3539    4.8967   -1.2247 C   0  0  0  0  0  0  0  0  0  0  0  0
   -3.5540    3.7816   -2.2466 C   0  0  0  0  0  0  0  0  0  0  0  0
    5.7159   -3.3976    0.7568 H   0  0  0  0  0  0  0  0  0  0  0  0
    4.3915   -4.5879    0.7710 H   0  0  0  0  0  0  0  0  0  0  0  0
    4.6014   -3.5087    2.1371 H   0  0  0  0  0  0  0  0  0  0  0  0
    3.8559   -2.7230   -0.7135 H   0  0  0  0  0  0  0  0  0  0  0  0
    5.6414    1.6463   -0.6048 H   0  0  0  0  0  0  0  0  0  0  0  0
    4.9990    2.5989    1.5921 H   0  0  0  0  0  0  0  0  0  0  0  0
    1.0296   -0.6787    0.6116 H   0  0  0  0  0  0  0  0  0  0  0  0
   -1.0624   -1.8166   -2.9813 H   0  0  0  0  0  0  0  0  0  0  0  0
    1.5561   -5.2218   -0.4235 H   0  0  0  0  0  0  0  0  0  0  0  0
    2.7411   -4.6889   -1.4156 H   0  0  0  0  0  0  0  0  0  0  0  0
    0.4338    1.7357   -0.0483 H   0  0  0  0  0  0  0  0  0  0  0  0
   -2.8037   -0.1970   -2.1496 H   0  0  0  0  0  0  0  0  0  0  0  0
   -4.1775    1.7469   -2.3517 H   0  0  0  0  0  0  0  0  0  0  0  0
   -4.5397    1.4788    0.1919 H   0  0  0  0  0  0  0  0  0  0  0  0
   -5.6568    2.4925   -0.7169 H   0  0  0  0  0  0  0  0  0  0  0  0
   -3.3530    3.4859    1.0484 H   0  0  0  0  0  0  0  0  0  0  0  0
   -5.0750    3.6213    1.3462 H   0  0  0  0  0  0  0  0  0  0  0  0
   -5.3034    4.9849   -0.5963 H   0  0  0  0  0  0  0  0  0  0  0  0
   -3.4116    5.8618   -1.7380 H   0  0  0  0  0  0  0  0  0  0  0  0
   -2.3584    4.8572   -0.7744 H   0  0  0  0  0  0  0  0  0  0  0  0
   -4.4717    3.9957   -2.8104 H   0  0  0  0  0  0  0  0  0  0  0  0
   -2.7327    3.7937   -2.9735 H   0  0  0  0  0  0  0  0  0  0  0  0
  1  2  1  0
  2  3  1  0
  3  4  2  0
  4  5  1  0
  5  6  2  0
  6  7  1  0
  7  8  2  0
  8  9  1  0
  7 10  1  0
  4 11  1  0
  2 12  1  0
 12 13  1  0
 13 14  2  0
 14 15  1  0
 15 16  2  0
 16 17  1  0
 17 18  2  0
 18 19  1  0
 15 20  1  0
 20 21  1  0
 21 22  2  0
 22 23  1  0
 23 24  1  0
 23 25  1  0
 25 26  1  0
 26 27  1  0
 27 28  1  0
 28 29  1  0
 29 30  1  0
  8  3  1  0
 18 13  1  0
 24 20  2  0
 30 25  1  0
  1 31  1  0
  1 32  1  0
  1 33  1  0
  2 34  1  6
  5 35  1  0
  6 36  1  0
 14 37  1  0
 16 38  1  0
 19 39  1  0
 19 40  1  0
 21 41  1  0
 24 42  1  0
 25 43  1  0
 26 44  1  0
 26 45  1  0
 27 46  1  0
 27 47  1  0
 28 48  1  0
 29 49  1  0
 29 50  1  0
 30 51  1  0
 30 52  1  0
M  END
>  <energy_abs>  (139) 
35.422029007984634

>  <SMILES>  (139) 
C[C@H](c1c(ccc(c1Cl)F)Cl)Oc2cc(cnc2N)c3cnn(c3)C4CCNCC4

>  <cluster_no>  (139) 
139

>  <fda_drugs_id>  (139) 
KTEIFNKAUNYNJU-GFCCVEGCSA-N

>  <initial_conformation_id>  (139) 
159

>  <minimize_method>  (139) 
MMFF

$$$$

     RDKit          3D

 52 55  0  0  0  0  0  0  0  0999 V2000
    4.4111   -1.1180   -1.4169 C   0  0  0  0  0  0  0  0  0  0  0  0
    3.7127   -1.0365   -0.0549 C   0  0  2  0  0  0  0  0  0  0  0  0
    4.7154   -1.1835    1.0869 C   0  0  0  0  0  0  0  0  0  0  0  0
    5.2938   -2.4273    1.4359 C   0  0  0  0  0  0  0  0  0  0  0  0
    6.2074   -2.5364    2.4959 C   0  0  0  0  0  0  0  0  0  0  0  0
    6.5754   -1.4140    3.2277 C   0  0  0  0  0  0  0  0  0  0  0  0
    6.0347   -0.1826    2.8920 C   0  0  0  0  0  0  0  0  0  0  0  0
    5.1212   -0.0545    1.8369 C   0  0  0  0  0  0  0  0  0  0  0  0
    4.5414    1.5439    1.4949 Cl  0  0  0  0  0  0  0  0  0  0  0  0
    6.4135    0.8907    3.6021 F   0  0  0  0  0  0  0  0  0  0  0  0
    4.9531   -3.9030    0.5944 Cl  0  0  0  0  0  0  0  0  0  0  0  0
    2.7007   -2.0492    0.0903 O   0  0  0  0  0  0  0  0  0  0  0  0
    1.5614   -1.8482   -0.6450 C   0  0  0  0  0  0  0  0  0  0  0  0
    0.7724   -0.7058   -0.5074 C   0  0  0  0  0  0  0  0  0  0  0  0
   -0.3965   -0.5790   -1.2617 C   0  0  0  0  0  0  0  0  0  0  0  0
   -0.7120   -1.6359   -2.1126 C   0  0  0  0  0  0  0  0  0  0  0  0
    0.0203   -2.7705   -2.2416 N   0  0  0  0  0  0  0  0  0  0  0  0
    1.1352   -2.8743   -1.5004 C   0  0  0  0  0  0  0  0  0  0  0  0
    1.8796   -4.0627   -1.6081 N   0  0  0  0  0  0  0  0  0  0  0  0
   -1.2310    0.6041   -1.1530 C   0  0  0  0  0  0  0  0  0  0  0  0
   -0.9272    1.9117   -0.7055 C   0  0  0  0  0  0  0  0  0  0  0  0
   -1.9793    2.7322   -0.7435 N   0  0  0  0  0  0  0  0  0  0  0  0
   -2.9726    1.9541   -1.2152 N   0  0  0  0  0  0  0  0  0  0  0  0
   -2.5717    0.6715   -1.4740 C   0  0  0  0  0  0  0  0  0  0  0  0
   -4.3127    2.4978   -1.3987 C   0  0  0  0  0  0  0  0  0  0  0  0
   -5.0020    2.7827   -0.0530 C   0  0  0  0  0  0  0  0  0  0  0  0
   -5.9454    3.9815   -0.1303 C   0  0  0  0  0  0  0  0  0  0  0  0
   -6.6495    3.9878   -1.4065 N   0  0  0  0  0  0  0  0  0  0  0  0
   -5.7474    4.2226   -2.5369 C   0  0  0  0  0  0  0  0  0  0  0  0
   -4.3170    3.7334   -2.3032 C   0  0  0  0  0  0  0  0  0  0  0  0
    3.7042   -0.9061   -2.2263 H   0  0  0  0  0  0  0  0  0  0  0  0
    5.2301   -0.3944   -1.4870 H   0  0  0  0  0  0  0  0  0  0  0  0
    4.8154   -2.1141   -1.6174 H   0  0  0  0  0  0  0  0  0  0  0  0
    3.2310   -0.0596    0.0097 H   0  0  0  0  0  0  0  0  0  0  0  0
    6.6386   -3.5025    2.7530 H   0  0  0  0  0  0  0  0  0  0  0  0
    7.2814   -1.4889    4.0490 H   0  0  0  0  0  0  0  0  0  0  0  0
    1.0483    0.0609    0.2091 H   0  0  0  0  0  0  0  0  0  0  0  0
   -1.5935   -1.6140   -2.7473 H   0  0  0  0  0  0  0  0  0  0  0  0
    2.8268   -3.8231   -1.8856 H   0  0  0  0  0  0  0  0  0  0  0  0
    1.9601   -4.4582   -0.6736 H   0  0  0  0  0  0  0  0  0  0  0  0
    0.0192    2.3047   -0.3567 H   0  0  0  0  0  0  0  0  0  0  0  0
   -3.2707   -0.0646   -1.8458 H   0  0  0  0  0  0  0  0  0  0  0  0
   -4.8841    1.7109   -1.9121 H   0  0  0  0  0  0  0  0  0  0  0  0
   -4.2750    2.9633    0.7485 H   0  0  0  0  0  0  0  0  0  0  0  0
   -5.5631    1.8873    0.2460 H   0  0  0  0  0  0  0  0  0  0  0  0
   -6.6715    3.9174    0.6878 H   0  0  0  0  0  0  0  0  0  0  0  0
   -5.3970    4.9211    0.0110 H   0  0  0  0  0  0  0  0  0  0  0  0
   -7.3801    4.7004   -1.4024 H   0  0  0  0  0  0  0  0  0  0  0  0
   -6.1693    3.7157   -3.4119 H   0  0  0  0  0  0  0  0  0  0  0  0
   -5.7209    5.2927   -2.7752 H   0  0  0  0  0  0  0  0  0  0  0  0
   -3.8385    3.5137   -3.2656 H   0  0  0  0  0  0  0  0  0  0  0  0
   -3.7301    4.5388   -1.8417 H   0  0  0  0  0  0  0  0  0  0  0  0
  1  2  1  0
  2  3  1  0
  3  4  2  0
  4  5  1  0
  5  6  2  0
  6  7  1  0
  7  8  2  0
  8  9  1  0
  7 10  1  0
  4 11  1  0
  2 12  1  0
 12 13  1  0
 13 14  2  0
 14 15  1  0
 15 16  2  0
 16 17  1  0
 17 18  2  0
 18 19  1  0
 15 20  1  0
 20 21  1  0
 21 22  2  0
 22 23  1  0
 23 24  1  0
 23 25  1  0
 25 26  1  0
 26 27  1  0
 27 28  1  0
 28 29  1  0
 29 30  1  0
  8  3  1  0
 18 13  1  0
 24 20  2  0
 30 25  1  0
  1 31  1  0
  1 32  1  0
  1 33  1  0
  2 34  1  1
  5 35  1  0
  6 36  1  0
 14 37  1  0
 16 38  1  0
 19 39  1  0
 19 40  1  0
 21 41  1  0
 24 42  1  0
 25 43  1  0
 26 44  1  0
 26 45  1  0
 27 46  1  0
 27 47  1  0
 28 48  1  0
 29 49  1  0
 29 50  1  0
 30 51  1  0
 30 52  1  0
M  END
>  <energy_abs>  (140) 
38.18019883298987

>  <SMILES>  (140) 
C[C@H](c1c(ccc(c1Cl)F)Cl)Oc2cc(cnc2N)c3cnn(c3)C4CCNCC4

>  <cluster_no>  (140) 
140

>  <fda_drugs_id>  (140) 
KTEIFNKAUNYNJU-GFCCVEGCSA-N

>  <initial_conformation_id>  (140) 
158

>  <minimize_method>  (140) 
MMFF

$$$$

     RDKit          3D

 52 55  0  0  0  0  0  0  0  0999 V2000
    1.6030   -0.5777    2.0206 C   0  0  0  0  0  0  0  0  0  0  0  0
    2.6083   -1.2511    1.0792 C   0  0  2  0  0  0  0  0  0  0  0  0
    4.0198   -1.2554    1.6585 C   0  0  0  0  0  0  0  0  0  0  0  0
    4.6312   -2.4651    2.0668 C   0  0  0  0  0  0  0  0  0  0  0  0
    5.9291   -2.4899    2.6013 C   0  0  0  0  0  0  0  0  0  0  0  0
    6.6516   -1.3115    2.7465 C   0  0  0  0  0  0  0  0  0  0  0  0
    6.0732   -0.1127    2.3544 C   0  0  0  0  0  0  0  0  0  0  0  0
    4.7793   -0.0695    1.8132 C   0  0  0  0  0  0  0  0  0  0  0  0
    4.1925    1.4948    1.3481 Cl  0  0  0  0  0  0  0  0  0  0  0  0
    6.7843    1.0155    2.5123 F   0  0  0  0  0  0  0  0  0  0  0  0
    3.8384   -3.9997    1.9451 Cl  0  0  0  0  0  0  0  0  0  0  0  0
    2.6638   -0.5982   -0.2028 O   0  0  0  0  0  0  0  0  0  0  0  0
    1.6973   -1.0362   -1.0685 C   0  0  0  0  0  0  0  0  0  0  0  0
    0.5603   -0.2466   -1.2377 C   0  0  0  0  0  0  0  0  0  0  0  0
   -0.4267   -0.6394   -2.1423 C   0  0  0  0  0  0  0  0  0  0  0  0
   -0.1867   -1.8157   -2.8486 C   0  0  0  0  0  0  0  0  0  0  0  0
    0.9269   -2.5844   -2.7240 N   0  0  0  0  0  0  0  0  0  0  0  0
    1.8685   -2.1806   -1.8563 C   0  0  0  0  0  0  0  0  0  0  0  0
    3.0320   -2.9588   -1.7670 N   0  0  0  0  0  0  0  0  0  0  0  0
   -1.6397    0.1323   -2.3510 C   0  0  0  0  0  0  0  0  0  0  0  0
   -2.5999    0.0872   -3.3893 C   0  0  0  0  0  0  0  0  0  0  0  0
   -3.5923    0.9633   -3.2182 N   0  0  0  0  0  0  0  0  0  0  0  0
   -3.2722    1.5922   -2.0714 N   0  0  0  0  0  0  0  0  0  0  0  0
   -2.1188    1.1167   -1.5089 C   0  0  0  0  0  0  0  0  0  0  0  0
   -4.1588    2.6320   -1.5550 C   0  0  0  0  0  0  0  0  0  0  0  0
   -3.4367    3.9759   -1.3793 C   0  0  0  0  0  0  0  0  0  0  0  0
   -4.0700    4.7827   -0.2554 C   0  0  0  0  0  0  0  0  0  0  0  0
   -3.9423    4.0924    1.0237 N   0  0  0  0  0  0  0  0  0  0  0  0
   -4.2235    2.6585    0.9859 C   0  0  0  0  0  0  0  0  0  0  0  0
   -4.9070    2.1814   -0.2912 C   0  0  0  0  0  0  0  0  0  0  0  0
    0.5797   -0.7362    1.6611 H   0  0  0  0  0  0  0  0  0  0  0  0
    1.7375    0.5052    2.0744 H   0  0  0  0  0  0  0  0  0  0  0  0
    1.6693   -0.9878    3.0334 H   0  0  0  0  0  0  0  0  0  0  0  0
    2.2552   -2.2763    0.9376 H   0  0  0  0  0  0  0  0  0  0  0  0
    6.3803   -3.4326    2.9120 H   0  0  0  0  0  0  0  0  0  0  0  0
    7.6545   -1.3166    3.1633 H   0  0  0  0  0  0  0  0  0  0  0  0
    0.4697    0.6715   -0.6664 H   0  0  0  0  0  0  0  0  0  0  0  0
   -0.9017   -2.2049   -3.5688 H   0  0  0  0  0  0  0  0  0  0  0  0
    3.1101   -3.3599   -0.8386 H   0  0  0  0  0  0  0  0  0  0  0  0
    3.8362   -2.3511   -1.9083 H   0  0  0  0  0  0  0  0  0  0  0  0
   -2.6194   -0.5454   -4.2683 H   0  0  0  0  0  0  0  0  0  0  0  0
   -1.7476    1.5191   -0.5775 H   0  0  0  0  0  0  0  0  0  0  0  0
   -4.9222    2.7704   -2.3346 H   0  0  0  0  0  0  0  0  0  0  0  0
   -3.4839    4.5412   -2.3182 H   0  0  0  0  0  0  0  0  0  0  0  0
   -2.3690    3.8398   -1.1640 H   0  0  0  0  0  0  0  0  0  0  0  0
   -5.1268    4.9758   -0.4737 H   0  0  0  0  0  0  0  0  0  0  0  0
   -3.5768    5.7575   -0.1805 H   0  0  0  0  0  0  0  0  0  0  0  0
   -4.5236    4.5519    1.7243 H   0  0  0  0  0  0  0  0  0  0  0  0
   -4.8495    2.3955    1.8474 H   0  0  0  0  0  0  0  0  0  0  0  0
   -3.2786    2.1208    1.1248 H   0  0  0  0  0  0  0  0  0  0  0  0
   -5.0297    1.0915   -0.2656 H   0  0  0  0  0  0  0  0  0  0  0  0
   -5.9216    2.6018   -0.3150 H   0  0  0  0  0  0  0  0  0  0  0  0
  1  2  1  0
  2  3  1  0
  3  4  2  0
  4  5  1  0
  5  6  2  0
  6  7  1  0
  7  8  2  0
  8  9  1  0
  7 10  1  0
  4 11  1  0
  2 12  1  0
 12 13  1  0
 13 14  2  0
 14 15  1  0
 15 16  2  0
 16 17  1  0
 17 18  2  0
 18 19  1  0
 15 20  1  0
 20 21  1  0
 21 22  2  0
 22 23  1  0
 23 24  1  0
 23 25  1  0
 25 26  1  0
 26 27  1  0
 27 28  1  0
 28 29  1  0
 29 30  1  0
  8  3  1  0
 18 13  1  0
 24 20  2  0
 30 25  1  0
  1 31  1  0
  1 32  1  0
  1 33  1  0
  2 34  1  6
  5 35  1  0
  6 36  1  0
 14 37  1  0
 16 38  1  0
 19 39  1  0
 19 40  1  0
 21 41  1  0
 24 42  1  0
 25 43  1  0
 26 44  1  0
 26 45  1  0
 27 46  1  0
 27 47  1  0
 28 48  1  0
 29 49  1  0
 29 50  1  0
 30 51  1  0
 30 52  1  0
M  END
>  <energy_abs>  (141) 
40.83286595260673

>  <SMILES>  (141) 
C[C@H](c1c(ccc(c1Cl)F)Cl)Oc2cc(cnc2N)c3cnn(c3)C4CCNCC4

>  <cluster_no>  (141) 
141

>  <fda_drugs_id>  (141) 
KTEIFNKAUNYNJU-GFCCVEGCSA-N

>  <initial_conformation_id>  (141) 
157

>  <minimize_method>  (141) 
MMFF

$$$$

     RDKit          3D

 52 55  0  0  0  0  0  0  0  0999 V2000
    6.2465   -0.9659   -0.1979 C   0  0  0  0  0  0  0  0  0  0  0  0
    4.8146   -0.4732    0.0225 C   0  0  2  0  0  0  0  0  0  0  0  0
    4.1298   -1.2311    1.1586 C   0  0  0  0  0  0  0  0  0  0  0  0
    3.9356   -0.6121    2.4157 C   0  0  0  0  0  0  0  0  0  0  0  0
    3.2932   -1.2778    3.4702 C   0  0  0  0  0  0  0  0  0  0  0  0
    2.8296   -2.5756    3.3020 C   0  0  0  0  0  0  0  0  0  0  0  0
    3.0237   -3.2087    2.0837 C   0  0  0  0  0  0  0  0  0  0  0  0
    3.6677   -2.5611    1.0199 C   0  0  0  0  0  0  0  0  0  0  0  0
    3.8542   -3.4770   -0.4394 Cl  0  0  0  0  0  0  0  0  0  0  0  0
    2.5759   -4.4663    1.9480 F   0  0  0  0  0  0  0  0  0  0  0  0
    4.4736    0.9975    2.7615 Cl  0  0  0  0  0  0  0  0  0  0  0  0
    4.0894   -0.6092   -1.2180 O   0  0  0  0  0  0  0  0  0  0  0  0
    3.1639    0.3904   -1.3731 C   0  0  0  0  0  0  0  0  0  0  0  0
    1.8221    0.0976   -1.1395 C   0  0  0  0  0  0  0  0  0  0  0  0
    0.8638    1.0995   -1.2963 C   0  0  0  0  0  0  0  0  0  0  0  0
    1.3255    2.3501   -1.7068 C   0  0  0  0  0  0  0  0  0  0  0  0
    2.6232    2.6510   -1.9758 N   0  0  0  0  0  0  0  0  0  0  0  0
    3.5215    1.6648   -1.8220 C   0  0  0  0  0  0  0  0  0  0  0  0
    4.8507    1.9919   -2.0980 N   0  0  0  0  0  0  0  0  0  0  0  0
   -0.5383    0.8405   -1.0237 C   0  0  0  0  0  0  0  0  0  0  0  0
   -1.1556   -0.1608   -0.2366 C   0  0  0  0  0  0  0  0  0  0  0  0
   -2.4874   -0.0700   -0.2300 N   0  0  0  0  0  0  0  0  0  0  0  0
   -2.7376    0.9872   -1.0266 N   0  0  0  0  0  0  0  0  0  0  0  0
   -1.6009    1.5661   -1.5230 C   0  0  0  0  0  0  0  0  0  0  0  0
   -4.1087    1.4105   -1.2828 C   0  0  0  0  0  0  0  0  0  0  0  0
   -4.9741    0.2730   -1.8319 C   0  0  0  0  0  0  0  0  0  0  0  0
   -6.3785    0.7789   -2.1645 C   0  0  0  0  0  0  0  0  0  0  0  0
   -6.8384    1.8693   -1.3003 N   0  0  0  0  0  0  0  0  0  0  0  0
   -6.2524    1.7996    0.0323 C   0  0  0  0  0  0  0  0  0  0  0  0
   -4.7481    2.0533   -0.0393 C   0  0  0  0  0  0  0  0  0  0  0  0
    6.8404   -0.8865    0.7188 H   0  0  0  0  0  0  0  0  0  0  0  0
    6.2832   -2.0034   -0.5417 H   0  0  0  0  0  0  0  0  0  0  0  0
    6.7333   -0.3695   -0.9773 H   0  0  0  0  0  0  0  0  0  0  0  0
    4.9041    0.5901    0.2653 H   0  0  0  0  0  0  0  0  0  0  0  0
    3.1487   -0.7811    4.4283 H   0  0  0  0  0  0  0  0  0  0  0  0
    2.3249   -3.0978    4.1084 H   0  0  0  0  0  0  0  0  0  0  0  0
    1.5445   -0.9088   -0.8424 H   0  0  0  0  0  0  0  0  0  0  0  0
    0.6491    3.1915   -1.8331 H   0  0  0  0  0  0  0  0  0  0  0  0
    5.2561    1.3099   -2.7308 H   0  0  0  0  0  0  0  0  0  0  0  0
    4.8511    2.9316   -2.4850 H   0  0  0  0  0  0  0  0  0  0  0  0
   -0.6900   -0.9503    0.3392 H   0  0  0  0  0  0  0  0  0  0  0  0
   -1.6556    2.4210   -2.1826 H   0  0  0  0  0  0  0  0  0  0  0  0
   -4.0404    2.1807   -2.0648 H   0  0  0  0  0  0  0  0  0  0  0  0
   -5.0469   -0.5342   -1.0909 H   0  0  0  0  0  0  0  0  0  0  0  0
   -4.5172   -0.1674   -2.7266 H   0  0  0  0  0  0  0  0  0  0  0  0
   -7.0800   -0.0618   -2.1086 H   0  0  0  0  0  0  0  0  0  0  0  0
   -6.4026    1.1399   -3.1988 H   0  0  0  0  0  0  0  0  0  0  0  0
   -7.8571    1.8467   -1.2395 H   0  0  0  0  0  0  0  0  0  0  0  0
   -6.7120    2.5586    0.6749 H   0  0  0  0  0  0  0  0  0  0  0  0
   -6.4642    0.8277    0.4950 H   0  0  0  0  0  0  0  0  0  0  0  0
   -4.2899    1.6908    0.8891 H   0  0  0  0  0  0  0  0  0  0  0  0
   -4.5548    3.1339   -0.0693 H   0  0  0  0  0  0  0  0  0  0  0  0
  1  2  1  0
  2  3  1  0
  3  4  2  0
  4  5  1  0
  5  6  2  0
  6  7  1  0
  7  8  2  0
  8  9  1  0
  7 10  1  0
  4 11  1  0
  2 12  1  0
 12 13  1  0
 13 14  2  0
 14 15  1  0
 15 16  2  0
 16 17  1  0
 17 18  2  0
 18 19  1  0
 15 20  1  0
 20 21  1  0
 21 22  2  0
 22 23  1  0
 23 24  1  0
 23 25  1  0
 25 26  1  0
 26 27  1  0
 27 28  1  0
 28 29  1  0
 29 30  1  0
  8  3  1  0
 18 13  1  0
 24 20  2  0
 30 25  1  0
  1 31  1  0
  1 32  1  0
  1 33  1  0
  2 34  1  1
  5 35  1  0
  6 36  1  0
 14 37  1  0
 16 38  1  0
 19 39  1  0
 19 40  1  0
 21 41  1  0
 24 42  1  0
 25 43  1  0
 26 44  1  0
 26 45  1  0
 27 46  1  0
 27 47  1  0
 28 48  1  0
 29 49  1  0
 29 50  1  0
 30 51  1  0
 30 52  1  0
M  END
>  <energy_abs>  (142) 
26.77571576715064

>  <SMILES>  (142) 
C[C@H](c1c(ccc(c1Cl)F)Cl)Oc2cc(cnc2N)c3cnn(c3)C4CCNCC4

>  <cluster_no>  (142) 
142

>  <fda_drugs_id>  (142) 
KTEIFNKAUNYNJU-GFCCVEGCSA-N

>  <initial_conformation_id>  (142) 
155

>  <minimize_method>  (142) 
MMFF

$$$$

     RDKit          3D

 52 55  0  0  0  0  0  0  0  0999 V2000
    5.9558   -1.2654    0.2227 C   0  0  0  0  0  0  0  0  0  0  0  0
    4.5903   -0.5741    0.1847 C   0  0  2  0  0  0  0  0  0  0  0  0
    3.6284   -1.1974    1.1922 C   0  0  0  0  0  0  0  0  0  0  0  0
    3.3384   -0.5310    2.4054 C   0  0  0  0  0  0  0  0  0  0  0  0
    2.4446   -1.0687    3.3417 C   0  0  0  0  0  0  0  0  0  0  0  0
    1.8235   -2.2872    3.0994 C   0  0  0  0  0  0  0  0  0  0  0  0
    2.1061   -2.9672    1.9246 C   0  0  0  0  0  0  0  0  0  0  0  0
    2.9987   -2.4454    0.9780 C   0  0  0  0  0  0  0  0  0  0  0  0
    3.2700   -3.4039   -0.4387 Cl  0  0  0  0  0  0  0  0  0  0  0  0
    1.4969   -4.1441    1.7146 F   0  0  0  0  0  0  0  0  0  0  0  0
    4.0657    0.9793    2.8387 Cl  0  0  0  0  0  0  0  0  0  0  0  0
    4.0989   -0.6337   -1.1716 O   0  0  0  0  0  0  0  0  0  0  0  0
    3.3300    0.4599   -1.4830 C   0  0  0  0  0  0  0  0  0  0  0  0
    1.9546    0.4133   -1.2595 C   0  0  0  0  0  0  0  0  0  0  0  0
    1.1669    1.5166   -1.5858 C   0  0  0  0  0  0  0  0  0  0  0  0
    1.8238    2.6101   -2.1453 C   0  0  0  0  0  0  0  0  0  0  0  0
    3.1556    2.6655   -2.4027 N   0  0  0  0  0  0  0  0  0  0  0  0
    3.8942    1.5891   -2.0881 C   0  0  0  0  0  0  0  0  0  0  0  0
    5.2622    1.6299   -2.4004 N   0  0  0  0  0  0  0  0  0  0  0  0
   -0.2653    1.5367   -1.3510 C   0  0  0  0  0  0  0  0  0  0  0  0
   -1.1620    2.6197   -1.1906 C   0  0  0  0  0  0  0  0  0  0  0  0
   -2.4218    2.2253   -0.9926 N   0  0  0  0  0  0  0  0  0  0  0  0
   -2.3452    0.8814   -1.0378 N   0  0  0  0  0  0  0  0  0  0  0  0
   -1.0731    0.4226   -1.2442 C   0  0  0  0  0  0  0  0  0  0  0  0
   -3.5456    0.0652   -0.8720 C   0  0  0  0  0  0  0  0  0  0  0  0
   -4.0329    0.1056    0.5833 C   0  0  0  0  0  0  0  0  0  0  0  0
   -5.4957   -0.3073    0.6715 C   0  0  0  0  0  0  0  0  0  0  0  0
   -6.3936    0.5295   -0.1231 N   0  0  0  0  0  0  0  0  0  0  0  0
   -5.7368    1.2676   -1.2052 C   0  0  0  0  0  0  0  0  0  0  0  0
   -4.6474    0.4405   -1.8761 C   0  0  0  0  0  0  0  0  0  0  0  0
    6.3908   -1.2352    1.2270 H   0  0  0  0  0  0  0  0  0  0  0  0
    6.6461   -0.7719   -0.4698 H   0  0  0  0  0  0  0  0  0  0  0  0
    5.8997   -2.3112   -0.0949 H   0  0  0  0  0  0  0  0  0  0  0  0
    4.7832    0.4771    0.4250 H   0  0  0  0  0  0  0  0  0  0  0  0
    2.2306   -0.5363    4.2671 H   0  0  0  0  0  0  0  0  0  0  0  0
    1.1292   -2.7135    3.8174 H   0  0  0  0  0  0  0  0  0  0  0  0
    1.5136   -0.4807   -0.8331 H   0  0  0  0  0  0  0  0  0  0  0  0
    1.2875    3.5098   -2.4371 H   0  0  0  0  0  0  0  0  0  0  0  0
    5.4656    0.8361   -3.0032 H   0  0  0  0  0  0  0  0  0  0  0  0
    5.8054    1.5059   -1.5545 H   0  0  0  0  0  0  0  0  0  0  0  0
   -0.9506    3.6813   -1.2023 H   0  0  0  0  0  0  0  0  0  0  0  0
   -0.8652   -0.6361   -1.3098 H   0  0  0  0  0  0  0  0  0  0  0  0
   -3.2341   -0.9623   -1.1053 H   0  0  0  0  0  0  0  0  0  0  0  0
   -3.4163   -0.5618    1.1975 H   0  0  0  0  0  0  0  0  0  0  0  0
   -3.9165    1.1079    1.0159 H   0  0  0  0  0  0  0  0  0  0  0  0
   -5.8219   -0.2917    1.7177 H   0  0  0  0  0  0  0  0  0  0  0  0
   -5.6016   -1.3446    0.3326 H   0  0  0  0  0  0  0  0  0  0  0  0
   -6.8774    1.1962    0.4808 H   0  0  0  0  0  0  0  0  0  0  0  0
   -6.4953    1.5454   -1.9449 H   0  0  0  0  0  0  0  0  0  0  0  0
   -5.3182    2.2032   -0.8145 H   0  0  0  0  0  0  0  0  0  0  0  0
   -5.0988   -0.4803   -2.2712 H   0  0  0  0  0  0  0  0  0  0  0  0
   -4.2431    0.9773   -2.7433 H   0  0  0  0  0  0  0  0  0  0  0  0
  1  2  1  0
  2  3  1  0
  3  4  2  0
  4  5  1  0
  5  6  2  0
  6  7  1  0
  7  8  2  0
  8  9  1  0
  7 10  1  0
  4 11  1  0
  2 12  1  0
 12 13  1  0
 13 14  2  0
 14 15  1  0
 15 16  2  0
 16 17  1  0
 17 18  2  0
 18 19  1  0
 15 20  1  0
 20 21  1  0
 21 22  2  0
 22 23  1  0
 23 24  1  0
 23 25  1  0
 25 26  1  0
 26 27  1  0
 27 28  1  0
 28 29  1  0
 29 30  1  0
  8  3  1  0
 18 13  1  0
 24 20  2  0
 30 25  1  0
  1 31  1  0
  1 32  1  0
  1 33  1  0
  2 34  1  1
  5 35  1  0
  6 36  1  0
 14 37  1  0
 16 38  1  0
 19 39  1  0
 19 40  1  0
 21 41  1  0
 24 42  1  0
 25 43  1  0
 26 44  1  0
 26 45  1  0
 27 46  1  0
 27 47  1  0
 28 48  1  0
 29 49  1  0
 29 50  1  0
 30 51  1  0
 30 52  1  0
M  END
>  <energy_abs>  (143) 
38.39042002391027

>  <SMILES>  (143) 
C[C@H](c1c(ccc(c1Cl)F)Cl)Oc2cc(cnc2N)c3cnn(c3)C4CCNCC4

>  <cluster_no>  (143) 
143

>  <fda_drugs_id>  (143) 
KTEIFNKAUNYNJU-GFCCVEGCSA-N

>  <initial_conformation_id>  (143) 
153

>  <minimize_method>  (143) 
MMFF

$$$$

     RDKit          3D

 52 55  0  0  0  0  0  0  0  0999 V2000
    1.9839   -2.0082    1.9931 C   0  0  0  0  0  0  0  0  0  0  0  0
    3.0692   -1.4404    1.0738 C   0  0  2  0  0  0  0  0  0  0  0  0
    4.4687   -1.7950    1.5710 C   0  0  0  0  0  0  0  0  0  0  0  0
    5.0433   -1.1958    2.7174 C   0  0  0  0  0  0  0  0  0  0  0  0
    6.3285   -1.5474    3.1588 C   0  0  0  0  0  0  0  0  0  0  0  0
    7.0720   -2.5052    2.4774 C   0  0  0  0  0  0  0  0  0  0  0  0
    6.5283   -3.1079    1.3544 C   0  0  0  0  0  0  0  0  0  0  0  0
    5.2473   -2.7680    0.8986 C   0  0  0  0  0  0  0  0  0  0  0  0
    4.6787   -3.5980   -0.5144 Cl  0  0  0  0  0  0  0  0  0  0  0  0
    7.2616   -4.0297    0.7104 F   0  0  0  0  0  0  0  0  0  0  0  0
    4.2333    0.0011    3.6729 Cl  0  0  0  0  0  0  0  0  0  0  0  0
    2.9583   -0.0071    0.9745 O   0  0  0  0  0  0  0  0  0  0  0  0
    2.2413    0.3878   -0.1254 C   0  0  0  0  0  0  0  0  0  0  0  0
    0.8951    0.7072    0.0374 C   0  0  0  0  0  0  0  0  0  0  0  0
    0.1580    1.1329   -1.0665 C   0  0  0  0  0  0  0  0  0  0  0  0
    0.8346    1.2349   -2.2796 C   0  0  0  0  0  0  0  0  0  0  0  0
    2.1520    0.9590   -2.4537 N   0  0  0  0  0  0  0  0  0  0  0  0
    2.8504    0.5646   -1.3756 C   0  0  0  0  0  0  0  0  0  0  0  0
    4.2172    0.3036   -1.5558 N   0  0  0  0  0  0  0  0  0  0  0  0
   -1.2454    1.4632   -0.9411 C   0  0  0  0  0  0  0  0  0  0  0  0
   -1.9601    2.0663    0.1166 C   0  0  0  0  0  0  0  0  0  0  0  0
   -3.2626    2.1891   -0.1462 N   0  0  0  0  0  0  0  0  0  0  0  0
   -3.3941    1.6589   -1.3751 N   0  0  0  0  0  0  0  0  0  0  0  0
   -2.2098    1.2088   -1.8933 C   0  0  0  0  0  0  0  0  0  0  0  0
   -4.6967    1.6076   -2.0263 C   0  0  0  0  0  0  0  0  0  0  0  0
   -5.7205    0.8080   -1.2142 C   0  0  0  0  0  0  0  0  0  0  0  0
   -7.0667    0.7871   -1.9313 C   0  0  0  0  0  0  0  0  0  0  0  0
   -7.5441    2.1404   -2.2055 N   0  0  0  0  0  0  0  0  0  0  0  0
   -6.6017    2.9090   -3.0173 C   0  0  0  0  0  0  0  0  0  0  0  0
   -5.2348    3.0058   -2.3462 C   0  0  0  0  0  0  0  0  0  0  0  0
    2.1227   -3.0813    2.1620 H   0  0  0  0  0  0  0  0  0  0  0  0
    0.9938   -1.8633    1.5488 H   0  0  0  0  0  0  0  0  0  0  0  0
    1.9552   -1.5067    2.9648 H   0  0  0  0  0  0  0  0  0  0  0  0
    2.9015   -1.8762    0.0836 H   0  0  0  0  0  0  0  0  0  0  0  0
    6.7541   -1.0737    4.0419 H   0  0  0  0  0  0  0  0  0  0  0  0
    8.0669   -2.7839    2.8131 H   0  0  0  0  0  0  0  0  0  0  0  0
    0.4361    0.6099    1.0171 H   0  0  0  0  0  0  0  0  0  0  0  0
    0.3320    1.5719   -3.1830 H   0  0  0  0  0  0  0  0  0  0  0  0
    4.3935   -0.6862   -1.4254 H   0  0  0  0  0  0  0  0  0  0  0  0
    4.7318    0.8080   -0.8380 H   0  0  0  0  0  0  0  0  0  0  0  0
   -1.5852    2.4282    1.0644 H   0  0  0  0  0  0  0  0  0  0  0  0
   -2.1623    0.7457   -2.8691 H   0  0  0  0  0  0  0  0  0  0  0  0
   -4.5343    1.0812   -2.9774 H   0  0  0  0  0  0  0  0  0  0  0  0
   -5.3675   -0.2196   -1.0605 H   0  0  0  0  0  0  0  0  0  0  0  0
   -5.8462    1.2485   -0.2159 H   0  0  0  0  0  0  0  0  0  0  0  0
   -7.8006    0.2709   -1.3020 H   0  0  0  0  0  0  0  0  0  0  0  0
   -6.9920    0.2167   -2.8660 H   0  0  0  0  0  0  0  0  0  0  0  0
   -8.4474    2.0980   -2.6771 H   0  0  0  0  0  0  0  0  0  0  0  0
   -7.0018    3.9188   -3.1638 H   0  0  0  0  0  0  0  0  0  0  0  0
   -6.5051    2.4550   -4.0123 H   0  0  0  0  0  0  0  0  0  0  0  0
   -5.3188    3.6048   -1.4287 H   0  0  0  0  0  0  0  0  0  0  0  0
   -4.5381    3.5398   -3.0041 H   0  0  0  0  0  0  0  0  0  0  0  0
  1  2  1  0
  2  3  1  0
  3  4  2  0
  4  5  1  0
  5  6  2  0
  6  7  1  0
  7  8  2  0
  8  9  1  0
  7 10  1  0
  4 11  1  0
  2 12  1  0
 12 13  1  0
 13 14  2  0
 14 15  1  0
 15 16  2  0
 16 17  1  0
 17 18  2  0
 18 19  1  0
 15 20  1  0
 20 21  1  0
 21 22  2  0
 22 23  1  0
 23 24  1  0
 23 25  1  0
 25 26  1  0
 26 27  1  0
 27 28  1  0
 28 29  1  0
 29 30  1  0
  8  3  1  0
 18 13  1  0
 24 20  2  0
 30 25  1  0
  1 31  1  0
  1 32  1  0
  1 33  1  0
  2 34  1  6
  5 35  1  0
  6 36  1  0
 14 37  1  0
 16 38  1  0
 19 39  1  0
 19 40  1  0
 21 41  1  0
 24 42  1  0
 25 43  1  0
 26 44  1  0
 26 45  1  0
 27 46  1  0
 27 47  1  0
 28 48  1  0
 29 49  1  0
 29 50  1  0
 30 51  1  0
 30 52  1  0
M  END
>  <energy_abs>  (144) 
35.02794985324356

>  <SMILES>  (144) 
C[C@H](c1c(ccc(c1Cl)F)Cl)Oc2cc(cnc2N)c3cnn(c3)C4CCNCC4

>  <cluster_no>  (144) 
144

>  <fda_drugs_id>  (144) 
KTEIFNKAUNYNJU-GFCCVEGCSA-N

>  <initial_conformation_id>  (144) 
151

>  <minimize_method>  (144) 
MMFF

$$$$

     RDKit          3D

 52 55  0  0  0  0  0  0  0  0999 V2000
    3.3659    0.9300    1.4504 C   0  0  0  0  0  0  0  0  0  0  0  0
    3.1961   -0.5581    1.1304 C   0  0  2  0  0  0  0  0  0  0  0  0
    4.2464   -1.3838    1.8743 C   0  0  0  0  0  0  0  0  0  0  0  0
    3.8991   -2.0846    3.0546 C   0  0  0  0  0  0  0  0  0  0  0  0
    4.8368   -2.8575    3.7522 C   0  0  0  0  0  0  0  0  0  0  0  0
    6.1476   -2.9445    3.3012 C   0  0  0  0  0  0  0  0  0  0  0  0
    6.5190   -2.2458    2.1619 C   0  0  0  0  0  0  0  0  0  0  0  0
    5.5951   -1.4655    1.4530 C   0  0  0  0  0  0  0  0  0  0  0  0
    6.2095   -0.6032    0.0786 Cl  0  0  0  0  0  0  0  0  0  0  0  0
    7.7939   -2.3336    1.7544 F   0  0  0  0  0  0  0  0  0  0  0  0
    2.3096   -2.0254    3.7441 Cl  0  0  0  0  0  0  0  0  0  0  0  0
    3.3089   -0.8276   -0.2732 O   0  0  0  0  0  0  0  0  0  0  0  0
    2.3479   -0.3619   -1.1333 C   0  0  0  0  0  0  0  0  0  0  0  0
    1.0194   -0.0966   -0.7981 C   0  0  0  0  0  0  0  0  0  0  0  0
    0.1322    0.3665   -1.7747 C   0  0  0  0  0  0  0  0  0  0  0  0
    0.6370    0.5215   -3.0603 C   0  0  0  0  0  0  0  0  0  0  0  0
    1.9151    0.2613   -3.4228 N   0  0  0  0  0  0  0  0  0  0  0  0
    2.7520   -0.1713   -2.4668 C   0  0  0  0  0  0  0  0  0  0  0  0
    4.0703   -0.4748   -2.8564 N   0  0  0  0  0  0  0  0  0  0  0  0
   -1.2554    0.6489   -1.4539 C   0  0  0  0  0  0  0  0  0  0  0  0
   -2.0809    0.1680   -0.4107 C   0  0  0  0  0  0  0  0  0  0  0  0
   -3.3158    0.6722   -0.4506 N   0  0  0  0  0  0  0  0  0  0  0  0
   -3.2946    1.4837   -1.5246 N   0  0  0  0  0  0  0  0  0  0  0  0
   -2.0796    1.5074   -2.1522 C   0  0  0  0  0  0  0  0  0  0  0  0
   -4.4905    2.2215   -1.9221 C   0  0  0  0  0  0  0  0  0  0  0  0
   -5.7173    1.3076   -2.0873 C   0  0  0  0  0  0  0  0  0  0  0  0
   -6.6571    1.4349   -0.8971 C   0  0  0  0  0  0  0  0  0  0  0  0
   -7.1635    2.7986   -0.7311 N   0  0  0  0  0  0  0  0  0  0  0  0
   -6.2062    3.8477   -1.0796 C   0  0  0  0  0  0  0  0  0  0  0  0
   -4.7563    3.3969   -0.9716 C   0  0  0  0  0  0  0  0  0  0  0  0
    4.2787    1.3390    1.0099 H   0  0  0  0  0  0  0  0  0  0  0  0
    2.5392    1.5166    1.0378 H   0  0  0  0  0  0  0  0  0  0  0  0
    3.3936    1.1080    2.5294 H   0  0  0  0  0  0  0  0  0  0  0  0
    2.2056   -0.8860    1.4484 H   0  0  0  0  0  0  0  0  0  0  0  0
    4.5484   -3.3876    4.6577 H   0  0  0  0  0  0  0  0  0  0  0  0
    6.8834   -3.5398    3.8314 H   0  0  0  0  0  0  0  0  0  0  0  0
    0.6583   -0.2471    0.2122 H   0  0  0  0  0  0  0  0  0  0  0  0
    0.0118    0.8569   -3.8812 H   0  0  0  0  0  0  0  0  0  0  0  0
    4.2166   -1.4680   -2.6976 H   0  0  0  0  0  0  0  0  0  0  0  0
    4.7032    0.0003   -2.2183 H   0  0  0  0  0  0  0  0  0  0  0  0
   -1.8384   -0.5366    0.3754 H   0  0  0  0  0  0  0  0  0  0  0  0
   -1.9164    2.1258   -3.0210 H   0  0  0  0  0  0  0  0  0  0  0  0
   -4.2617    2.6285   -2.9173 H   0  0  0  0  0  0  0  0  0  0  0  0
   -5.4301    0.2578   -2.2341 H   0  0  0  0  0  0  0  0  0  0  0  0
   -6.2579    1.6004   -2.9943 H   0  0  0  0  0  0  0  0  0  0  0  0
   -7.5062    0.7536   -1.0200 H   0  0  0  0  0  0  0  0  0  0  0  0
   -6.1509    1.1273    0.0234 H   0  0  0  0  0  0  0  0  0  0  0  0
   -8.0137    2.9237   -1.2755 H   0  0  0  0  0  0  0  0  0  0  0  0
   -6.3784    4.7100   -0.4244 H   0  0  0  0  0  0  0  0  0  0  0  0
   -6.4011    4.1876   -2.1047 H   0  0  0  0  0  0  0  0  0  0  0  0
   -4.0858    4.2295   -1.2177 H   0  0  0  0  0  0  0  0  0  0  0  0
   -4.5360    3.1276    0.0688 H   0  0  0  0  0  0  0  0  0  0  0  0
  1  2  1  0
  2  3  1  0
  3  4  2  0
  4  5  1  0
  5  6  2  0
  6  7  1  0
  7  8  2  0
  8  9  1  0
  7 10  1  0
  4 11  1  0
  2 12  1  0
 12 13  1  0
 13 14  2  0
 14 15  1  0
 15 16  2  0
 16 17  1  0
 17 18  2  0
 18 19  1  0
 15 20  1  0
 20 21  1  0
 21 22  2  0
 22 23  1  0
 23 24  1  0
 23 25  1  0
 25 26  1  0
 26 27  1  0
 27 28  1  0
 28 29  1  0
 29 30  1  0
  8  3  1  0
 18 13  1  0
 24 20  2  0
 30 25  1  0
  1 31  1  0
  1 32  1  0
  1 33  1  0
  2 34  1  1
  5 35  1  0
  6 36  1  0
 14 37  1  0
 16 38  1  0
 19 39  1  0
 19 40  1  0
 21 41  1  0
 24 42  1  0
 25 43  1  0
 26 44  1  0
 26 45  1  0
 27 46  1  0
 27 47  1  0
 28 48  1  0
 29 49  1  0
 29 50  1  0
 30 51  1  0
 30 52  1  0
M  END
>  <energy_abs>  (145) 
39.7384221742933

>  <SMILES>  (145) 
C[C@H](c1c(ccc(c1Cl)F)Cl)Oc2cc(cnc2N)c3cnn(c3)C4CCNCC4

>  <cluster_no>  (145) 
145

>  <fda_drugs_id>  (145) 
KTEIFNKAUNYNJU-GFCCVEGCSA-N

>  <initial_conformation_id>  (145) 
150

>  <minimize_method>  (145) 
MMFF

$$$$

     RDKit          3D

 52 55  0  0  0  0  0  0  0  0999 V2000
    3.7327    1.6834    1.8235 C   0  0  0  0  0  0  0  0  0  0  0  0
    3.3026    0.3952    1.1167 C   0  0  2  0  0  0  0  0  0  0  0  0
    4.0260   -0.8280    1.6731 C   0  0  0  0  0  0  0  0  0  0  0  0
    3.3429   -1.7461    2.5062 C   0  0  0  0  0  0  0  0  0  0  0  0
    3.9818   -2.8798    3.0295 C   0  0  0  0  0  0  0  0  0  0  0  0
    5.3194   -3.1242    2.7465 C   0  0  0  0  0  0  0  0  0  0  0  0
    6.0140   -2.2311    1.9448 C   0  0  0  0  0  0  0  0  0  0  0  0
    5.3900   -1.0947    1.4097 C   0  0  0  0  0  0  0  0  0  0  0  0
    6.3748   -0.0677    0.4204 Cl  0  0  0  0  0  0  0  0  0  0  0  0
    7.3080   -2.4826    1.6927 F   0  0  0  0  0  0  0  0  0  0  0  0
    1.6821   -1.5441    2.9573 Cl  0  0  0  0  0  0  0  0  0  0  0  0
    3.5446    0.5461   -0.2955 O   0  0  0  0  0  0  0  0  0  0  0  0
    2.5406    0.0511   -1.0894 C   0  0  0  0  0  0  0  0  0  0  0  0
    1.2477    0.5750   -1.0443 C   0  0  0  0  0  0  0  0  0  0  0  0
    0.2680    0.0674   -1.8994 C   0  0  0  0  0  0  0  0  0  0  0  0
    0.6597   -0.9382   -2.7787 C   0  0  0  0  0  0  0  0  0  0  0  0
    1.9160   -1.4413   -2.8647 N   0  0  0  0  0  0  0  0  0  0  0  0
    2.8458   -0.9341   -2.0376 C   0  0  0  0  0  0  0  0  0  0  0  0
    4.1548   -1.4289   -2.1581 N   0  0  0  0  0  0  0  0  0  0  0  0
   -1.0933    0.5675   -1.8928 C   0  0  0  0  0  0  0  0  0  0  0  0
   -2.0656    0.6137   -2.9187 C   0  0  0  0  0  0  0  0  0  0  0  0
   -3.2238    1.1377   -2.5112 N   0  0  0  0  0  0  0  0  0  0  0  0
   -3.0030    1.4306   -1.2160 N   0  0  0  0  0  0  0  0  0  0  0  0
   -1.7405    1.1064   -0.7997 C   0  0  0  0  0  0  0  0  0  0  0  0
   -4.0643    2.0170   -0.4001 C   0  0  0  0  0  0  0  0  0  0  0  0
   -4.6155    3.3150   -1.0101 C   0  0  0  0  0  0  0  0  0  0  0  0
   -5.9798    3.0851   -1.6465 C   0  0  0  0  0  0  0  0  0  0  0  0
   -6.9653    2.6306   -0.6637 N   0  0  0  0  0  0  0  0  0  0  0  0
   -6.4527    1.6687    0.3109 C   0  0  0  0  0  0  0  0  0  0  0  0
   -5.1626    0.9830   -0.1160 C   0  0  0  0  0  0  0  0  0  0  0  0
    3.1569    2.5320    1.4349 H   0  0  0  0  0  0  0  0  0  0  0  0
    4.7852    1.9258    1.6536 H   0  0  0  0  0  0  0  0  0  0  0  0
    3.5666    1.6177    2.9036 H   0  0  0  0  0  0  0  0  0  0  0  0
    2.2269    0.3130    1.2938 H   0  0  0  0  0  0  0  0  0  0  0  0
    3.4358   -3.5779    3.6627 H   0  0  0  0  0  0  0  0  0  0  0  0
    5.8252   -3.9981    3.1458 H   0  0  0  0  0  0  0  0  0  0  0  0
    1.0196    1.3930   -0.3687 H   0  0  0  0  0  0  0  0  0  0  0  0
   -0.0426   -1.3969   -3.4700 H   0  0  0  0  0  0  0  0  0  0  0  0
    4.7694   -0.6361   -2.3313 H   0  0  0  0  0  0  0  0  0  0  0  0
    4.4415   -1.8103   -1.2639 H   0  0  0  0  0  0  0  0  0  0  0  0
   -1.9783    0.2916   -3.9482 H   0  0  0  0  0  0  0  0  0  0  0  0
   -1.4283    1.2718    0.2217 H   0  0  0  0  0  0  0  0  0  0  0  0
   -3.5863    2.2844    0.5522 H   0  0  0  0  0  0  0  0  0  0  0  0
   -3.9250    3.7460   -1.7439 H   0  0  0  0  0  0  0  0  0  0  0  0
   -4.7211    4.0656   -0.2153 H   0  0  0  0  0  0  0  0  0  0  0  0
   -6.3392    4.0212   -2.0886 H   0  0  0  0  0  0  0  0  0  0  0  0
   -5.9028    2.3573   -2.4636 H   0  0  0  0  0  0  0  0  0  0  0  0
   -7.7649    2.2359   -1.1598 H   0  0  0  0  0  0  0  0  0  0  0  0
   -7.2223    0.9137    0.5121 H   0  0  0  0  0  0  0  0  0  0  0  0
   -6.2859    2.1957    1.2594 H   0  0  0  0  0  0  0  0  0  0  0  0
   -4.8260    0.2950    0.6692 H   0  0  0  0  0  0  0  0  0  0  0  0
   -5.3617    0.3609   -0.9987 H   0  0  0  0  0  0  0  0  0  0  0  0
  1  2  1  0
  2  3  1  0
  3  4  2  0
  4  5  1  0
  5  6  2  0
  6  7  1  0
  7  8  2  0
  8  9  1  0
  7 10  1  0
  4 11  1  0
  2 12  1  0
 12 13  1  0
 13 14  2  0
 14 15  1  0
 15 16  2  0
 16 17  1  0
 17 18  2  0
 18 19  1  0
 15 20  1  0
 20 21  1  0
 21 22  2  0
 22 23  1  0
 23 24  1  0
 23 25  1  0
 25 26  1  0
 26 27  1  0
 27 28  1  0
 28 29  1  0
 29 30  1  0
  8  3  1  0
 18 13  1  0
 24 20  2  0
 30 25  1  0
  1 31  1  0
  1 32  1  0
  1 33  1  0
  2 34  1  6
  5 35  1  0
  6 36  1  0
 14 37  1  0
 16 38  1  0
 19 39  1  0
 19 40  1  0
 21 41  1  0
 24 42  1  0
 25 43  1  0
 26 44  1  0
 26 45  1  0
 27 46  1  0
 27 47  1  0
 28 48  1  0
 29 49  1  0
 29 50  1  0
 30 51  1  0
 30 52  1  0
M  END
>  <energy_abs>  (146) 
38.13154592727875

>  <SMILES>  (146) 
C[C@H](c1c(ccc(c1Cl)F)Cl)Oc2cc(cnc2N)c3cnn(c3)C4CCNCC4

>  <cluster_no>  (146) 
146

>  <fda_drugs_id>  (146) 
KTEIFNKAUNYNJU-GFCCVEGCSA-N

>  <initial_conformation_id>  (146) 
149

>  <minimize_method>  (146) 
MMFF

$$$$

     RDKit          3D

 52 55  0  0  0  0  0  0  0  0999 V2000
    4.5750    1.6328    1.4193 C   0  0  0  0  0  0  0  0  0  0  0  0
    3.7690    0.3933    1.0230 C   0  0  2  0  0  0  0  0  0  0  0  0
    4.4222   -0.8895    1.5298 C   0  0  0  0  0  0  0  0  0  0  0  0
    3.8769   -1.5790    2.6390 C   0  0  0  0  0  0  0  0  0  0  0  0
    4.4612   -2.7547    3.1339 C   0  0  0  0  0  0  0  0  0  0  0  0
    5.6063   -3.2717    2.5412 C   0  0  0  0  0  0  0  0  0  0  0  0
    6.1663   -2.6074    1.4604 C   0  0  0  0  0  0  0  0  0  0  0  0
    5.5947   -1.4317    0.9516 C   0  0  0  0  0  0  0  0  0  0  0  0
    6.3970   -0.7087   -0.4038 Cl  0  0  0  0  0  0  0  0  0  0  0  0
    7.2800   -3.1185    0.9122 F   0  0  0  0  0  0  0  0  0  0  0  0
    2.4667   -1.0266    3.4847 Cl  0  0  0  0  0  0  0  0  0  0  0  0
    3.6301    0.3791   -0.4105 O   0  0  0  0  0  0  0  0  0  0  0  0
    2.3734    0.0412   -0.8461 C   0  0  0  0  0  0  0  0  0  0  0  0
    1.2584    0.8261   -0.5427 C   0  0  0  0  0  0  0  0  0  0  0  0
    0.0015    0.4634   -1.0316 C   0  0  0  0  0  0  0  0  0  0  0  0
   -0.0502   -0.6788   -1.8271 C   0  0  0  0  0  0  0  0  0  0  0  0
    1.0227   -1.4369   -2.1678 N   0  0  0  0  0  0  0  0  0  0  0  0
    2.2218   -1.0642   -1.6920 C   0  0  0  0  0  0  0  0  0  0  0  0
    3.3356   -1.8290   -2.0761 N   0  0  0  0  0  0  0  0  0  0  0  0
   -1.1814    1.2454   -0.7139 C   0  0  0  0  0  0  0  0  0  0  0  0
   -1.4035    2.2215    0.2863 C   0  0  0  0  0  0  0  0  0  0  0  0
   -2.6404    2.7213    0.2616 N   0  0  0  0  0  0  0  0  0  0  0  0
   -3.2252    2.0776   -0.7660 N   0  0  0  0  0  0  0  0  0  0  0  0
   -2.3916    1.1777   -1.3751 C   0  0  0  0  0  0  0  0  0  0  0  0
   -4.6240    2.3570   -1.0825 C   0  0  0  0  0  0  0  0  0  0  0  0
   -5.5263    1.2173   -0.5893 C   0  0  0  0  0  0  0  0  0  0  0  0
   -6.8939    1.2934   -1.2524 C   0  0  0  0  0  0  0  0  0  0  0  0
   -6.8439    1.2367   -2.7119 N   0  0  0  0  0  0  0  0  0  0  0  0
   -5.5451    1.5524   -3.2989 C   0  0  0  0  0  0  0  0  0  0  0  0
   -4.8484    2.6932   -2.5667 C   0  0  0  0  0  0  0  0  0  0  0  0
    4.0476    2.5390    1.0969 H   0  0  0  0  0  0  0  0  0  0  0  0
    5.5585    1.6640    0.9388 H   0  0  0  0  0  0  0  0  0  0  0  0
    4.7202    1.6840    2.5037 H   0  0  0  0  0  0  0  0  0  0  0  0
    2.7853    0.5230    1.4819 H   0  0  0  0  0  0  0  0  0  0  0  0
    4.0240   -3.2714    3.9869 H   0  0  0  0  0  0  0  0  0  0  0  0
    6.0696   -4.1806    2.9154 H   0  0  0  0  0  0  0  0  0  0  0  0
    1.3840    1.7255    0.0516 H   0  0  0  0  0  0  0  0  0  0  0  0
   -0.9853   -1.0470   -2.2392 H   0  0  0  0  0  0  0  0  0  0  0  0
    3.7899   -2.1818   -1.2412 H   0  0  0  0  0  0  0  0  0  0  0  0
    4.0073   -1.1985   -2.5106 H   0  0  0  0  0  0  0  0  0  0  0  0
   -0.7183    2.5885    1.0386 H   0  0  0  0  0  0  0  0  0  0  0  0
   -2.7293    0.5865   -2.2142 H   0  0  0  0  0  0  0  0  0  0  0  0
   -4.8747    3.2641   -0.5124 H   0  0  0  0  0  0  0  0  0  0  0  0
   -5.6338    1.2784    0.5020 H   0  0  0  0  0  0  0  0  0  0  0  0
   -5.0779    0.2359   -0.7961 H   0  0  0  0  0  0  0  0  0  0  0  0
   -7.5289    0.4807   -0.8816 H   0  0  0  0  0  0  0  0  0  0  0  0
   -7.3879    2.2278   -0.9600 H   0  0  0  0  0  0  0  0  0  0  0  0
   -7.1644    0.3277   -3.0476 H   0  0  0  0  0  0  0  0  0  0  0  0
   -4.9114    0.6582   -3.2953 H   0  0  0  0  0  0  0  0  0  0  0  0
   -5.6945    1.8284   -4.3490 H   0  0  0  0  0  0  0  0  0  0  0  0
   -3.9107    2.9505   -3.0730 H   0  0  0  0  0  0  0  0  0  0  0  0
   -5.4829    3.5875   -2.6345 H   0  0  0  0  0  0  0  0  0  0  0  0
  1  2  1  0
  2  3  1  0
  3  4  2  0
  4  5  1  0
  5  6  2  0
  6  7  1  0
  7  8  2  0
  8  9  1  0
  7 10  1  0
  4 11  1  0
  2 12  1  0
 12 13  1  0
 13 14  2  0
 14 15  1  0
 15 16  2  0
 16 17  1  0
 17 18  2  0
 18 19  1  0
 15 20  1  0
 20 21  1  0
 21 22  2  0
 22 23  1  0
 23 24  1  0
 23 25  1  0
 25 26  1  0
 26 27  1  0
 27 28  1  0
 28 29  1  0
 29 30  1  0
  8  3  1  0
 18 13  1  0
 24 20  2  0
 30 25  1  0
  1 31  1  0
  1 32  1  0
  1 33  1  0
  2 34  1  1
  5 35  1  0
  6 36  1  0
 14 37  1  0
 16 38  1  0
 19 39  1  0
 19 40  1  0
 21 41  1  0
 24 42  1  0
 25 43  1  0
 26 44  1  0
 26 45  1  0
 27 46  1  0
 27 47  1  0
 28 48  1  0
 29 49  1  0
 29 50  1  0
 30 51  1  0
 30 52  1  0
M  END
>  <energy_abs>  (147) 
39.764198440433965

>  <SMILES>  (147) 
C[C@H](c1c(ccc(c1Cl)F)Cl)Oc2cc(cnc2N)c3cnn(c3)C4CCNCC4

>  <cluster_no>  (147) 
147

>  <fda_drugs_id>  (147) 
KTEIFNKAUNYNJU-GFCCVEGCSA-N

>  <initial_conformation_id>  (147) 
148

>  <minimize_method>  (147) 
MMFF

$$$$

     RDKit          3D

 52 55  0  0  0  0  0  0  0  0999 V2000
    5.7513    1.2722    1.1820 C   0  0  0  0  0  0  0  0  0  0  0  0
    4.3426    0.7933    0.8171 C   0  0  2  0  0  0  0  0  0  0  0  0
    4.0434   -0.5485    1.4817 C   0  0  0  0  0  0  0  0  0  0  0  0
    3.2360   -0.6046    2.6419 C   0  0  0  0  0  0  0  0  0  0  0  0
    2.9310   -1.8224    3.2662 C   0  0  0  0  0  0  0  0  0  0  0  0
    3.4327   -3.0147    2.7596 C   0  0  0  0  0  0  0  0  0  0  0  0
    4.2453   -2.9829    1.6358 C   0  0  0  0  0  0  0  0  0  0  0  0
    4.5610   -1.7741    0.9996 C   0  0  0  0  0  0  0  0  0  0  0  0
    5.6200   -1.8756   -0.3693 Cl  0  0  0  0  0  0  0  0  0  0  0  0
    4.7326   -4.1453    1.1751 F   0  0  0  0  0  0  0  0  0  0  0  0
    2.5770    0.8130    3.3868 Cl  0  0  0  0  0  0  0  0  0  0  0  0
    4.2545    0.7586   -0.6164 O   0  0  0  0  0  0  0  0  0  0  0  0
    3.0277    0.5893   -1.2080 C   0  0  0  0  0  0  0  0  0  0  0  0
    1.7922    0.8108   -0.5973 C   0  0  0  0  0  0  0  0  0  0  0  0
    0.6065    0.5859   -1.3068 C   0  0  0  0  0  0  0  0  0  0  0  0
    0.7374    0.1571   -2.6243 C   0  0  0  0  0  0  0  0  0  0  0  0
    1.9183   -0.0482   -3.2548 N   0  0  0  0  0  0  0  0  0  0  0  0
    3.0414    0.1713   -2.5506 C   0  0  0  0  0  0  0  0  0  0  0  0
    4.2669   -0.0730   -3.2012 N   0  0  0  0  0  0  0  0  0  0  0  0
   -0.6898    0.7854   -0.6779 C   0  0  0  0  0  0  0  0  0  0  0  0
   -1.0429    0.9426    0.6842 C   0  0  0  0  0  0  0  0  0  0  0  0
   -2.3549    1.1000    0.8687 N   0  0  0  0  0  0  0  0  0  0  0  0
   -2.8610    1.0505   -0.3769 N   0  0  0  0  0  0  0  0  0  0  0  0
   -1.9010    0.8611   -1.3357 C   0  0  0  0  0  0  0  0  0  0  0  0
   -4.2990    1.1904   -0.5770 C   0  0  0  0  0  0  0  0  0  0  0  0
   -4.6383    2.3662   -1.4975 C   0  0  0  0  0  0  0  0  0  0  0  0
   -6.1529    2.5193   -1.6417 C   0  0  0  0  0  0  0  0  0  0  0  0
   -6.8820    1.2515   -1.6420 N   0  0  0  0  0  0  0  0  0  0  0  0
   -6.0677    0.1238   -2.0694 C   0  0  0  0  0  0  0  0  0  0  0  0
   -4.9435   -0.1205   -1.0631 C   0  0  0  0  0  0  0  0  0  0  0  0
    5.8770    1.3581    2.2667 H   0  0  0  0  0  0  0  0  0  0  0  0
    5.9430    2.2530    0.7323 H   0  0  0  0  0  0  0  0  0  0  0  0
    6.5282    0.6034    0.7990 H   0  0  0  0  0  0  0  0  0  0  0  0
    3.6733    1.5850    1.1625 H   0  0  0  0  0  0  0  0  0  0  0  0
    2.3019   -1.8447    4.1543 H   0  0  0  0  0  0  0  0  0  0  0  0
    3.2044   -3.9642    3.2340 H   0  0  0  0  0  0  0  0  0  0  0  0
    1.7321    1.1744    0.4205 H   0  0  0  0  0  0  0  0  0  0  0  0
   -0.1264   -0.0531   -3.2483 H   0  0  0  0  0  0  0  0  0  0  0  0
    4.8367    0.7641   -3.1054 H   0  0  0  0  0  0  0  0  0  0  0  0
    4.7520   -0.7965   -2.6726 H   0  0  0  0  0  0  0  0  0  0  0  0
   -0.4012    0.9432    1.5554 H   0  0  0  0  0  0  0  0  0  0  0  0
   -2.1681    0.7989   -2.3805 H   0  0  0  0  0  0  0  0  0  0  0  0
   -4.7158    1.4208    0.4146 H   0  0  0  0  0  0  0  0  0  0  0  0
   -4.1953    2.2103   -2.4897 H   0  0  0  0  0  0  0  0  0  0  0  0
   -4.2076    3.2982   -1.1111 H   0  0  0  0  0  0  0  0  0  0  0  0
   -6.3649    3.0682   -2.5665 H   0  0  0  0  0  0  0  0  0  0  0  0
   -6.5406    3.1293   -0.8184 H   0  0  0  0  0  0  0  0  0  0  0  0
   -7.7240    1.3326   -2.2115 H   0  0  0  0  0  0  0  0  0  0  0  0
   -5.6649    0.2976   -3.0743 H   0  0  0  0  0  0  0  0  0  0  0  0
   -6.6911   -0.7750   -2.1317 H   0  0  0  0  0  0  0  0  0  0  0  0
   -5.3469   -0.6481   -0.1873 H   0  0  0  0  0  0  0  0  0  0  0  0
   -4.2091   -0.8017   -1.5113 H   0  0  0  0  0  0  0  0  0  0  0  0
  1  2  1  0
  2  3  1  0
  3  4  2  0
  4  5  1  0
  5  6  2  0
  6  7  1  0
  7  8  2  0
  8  9  1  0
  7 10  1  0
  4 11  1  0
  2 12  1  0
 12 13  1  0
 13 14  2  0
 14 15  1  0
 15 16  2  0
 16 17  1  0
 17 18  2  0
 18 19  1  0
 15 20  1  0
 20 21  1  0
 21 22  2  0
 22 23  1  0
 23 24  1  0
 23 25  1  0
 25 26  1  0
 26 27  1  0
 27 28  1  0
 28 29  1  0
 29 30  1  0
  8  3  1  0
 18 13  1  0
 24 20  2  0
 30 25  1  0
  1 31  1  0
  1 32  1  0
  1 33  1  0
  2 34  1  1
  5 35  1  0
  6 36  1  0
 14 37  1  0
 16 38  1  0
 19 39  1  0
 19 40  1  0
 21 41  1  0
 24 42  1  0
 25 43  1  0
 26 44  1  0
 26 45  1  0
 27 46  1  0
 27 47  1  0
 28 48  1  0
 29 49  1  0
 29 50  1  0
 30 51  1  0
 30 52  1  0
M  END
>  <energy_abs>  (148) 
37.77153463689803

>  <SMILES>  (148) 
C[C@H](c1c(ccc(c1Cl)F)Cl)Oc2cc(cnc2N)c3cnn(c3)C4CCNCC4

>  <cluster_no>  (148) 
148

>  <fda_drugs_id>  (148) 
KTEIFNKAUNYNJU-GFCCVEGCSA-N

>  <initial_conformation_id>  (148) 
147

>  <minimize_method>  (148) 
MMFF

$$$$

     RDKit          3D

 52 55  0  0  0  0  0  0  0  0999 V2000
    5.6708    1.3872    1.0600 C   0  0  0  0  0  0  0  0  0  0  0  0
    4.2706    0.8462    0.7544 C   0  0  2  0  0  0  0  0  0  0  0  0
    4.0508   -0.4945    1.4517 C   0  0  0  0  0  0  0  0  0  0  0  0
    3.2944   -0.5608    2.6454 C   0  0  0  0  0  0  0  0  0  0  0  0
    3.0597   -1.7782    3.2999 C   0  0  0  0  0  0  0  0  0  0  0  0
    3.5832   -2.9592    2.7902 C   0  0  0  0  0  0  0  0  0  0  0  0
    4.3490   -2.9162    1.6346 C   0  0  0  0  0  0  0  0  0  0  0  0
    4.5936   -1.7077    0.9669 C   0  0  0  0  0  0  0  0  0  0  0  0
    5.5981   -1.7956   -0.4431 Cl  0  0  0  0  0  0  0  0  0  0  0  0
    4.8589   -4.0681    1.1724 F   0  0  0  0  0  0  0  0  0  0  0  0
    2.6134    0.8433    3.3969 Cl  0  0  0  0  0  0  0  0  0  0  0  0
    4.1332    0.7782   -0.6709 O   0  0  0  0  0  0  0  0  0  0  0  0
    2.8950    0.5747   -1.2235 C   0  0  0  0  0  0  0  0  0  0  0  0
    1.6743    0.7262   -0.5642 C   0  0  0  0  0  0  0  0  0  0  0  0
    0.4749    0.4607   -1.2347 C   0  0  0  0  0  0  0  0  0  0  0  0
    0.5715    0.0583   -2.5634 C   0  0  0  0  0  0  0  0  0  0  0  0
    1.7354   -0.0840   -3.2415 N   0  0  0  0  0  0  0  0  0  0  0  0
    2.8714    0.1725   -2.5681 C   0  0  0  0  0  0  0  0  0  0  0  0
    4.0513    0.0568   -3.3058 N   0  0  0  0  0  0  0  0  0  0  0  0
   -0.8023    0.5929   -0.5557 C   0  0  0  0  0  0  0  0  0  0  0  0
   -1.1219    0.5824    0.8223 C   0  0  0  0  0  0  0  0  0  0  0  0
   -2.4262    0.7414    1.0548 N   0  0  0  0  0  0  0  0  0  0  0  0
   -2.9592    0.8582   -0.1765 N   0  0  0  0  0  0  0  0  0  0  0  0
   -2.0229    0.7800   -1.1719 C   0  0  0  0  0  0  0  0  0  0  0  0
   -4.3966    1.0771   -0.3134 C   0  0  0  0  0  0  0  0  0  0  0  0
   -4.7240    2.4849   -0.8364 C   0  0  0  0  0  0  0  0  0  0  0  0
   -5.0468    2.4755   -2.3256 C   0  0  0  0  0  0  0  0  0  0  0  0
   -6.1251    1.5606   -2.6930 N   0  0  0  0  0  0  0  0  0  0  0  0
   -6.3663    0.4746   -1.7462 C   0  0  0  0  0  0  0  0  0  0  0  0
   -5.0732   -0.0351   -1.1266 C   0  0  0  0  0  0  0  0  0  0  0  0
    5.8060    2.3673    0.5884 H   0  0  0  0  0  0  0  0  0  0  0  0
    6.4602    0.7434    0.6595 H   0  0  0  0  0  0  0  0  0  0  0  0
    5.8315    1.4967    2.1375 H   0  0  0  0  0  0  0  0  0  0  0  0
    3.5808    1.6161    1.1108 H   0  0  0  0  0  0  0  0  0  0  0  0
    2.4688   -1.8089    4.2137 H   0  0  0  0  0  0  0  0  0  0  0  0
    3.4092   -3.9086    3.2875 H   0  0  0  0  0  0  0  0  0  0  0  0
    1.6337    1.0704    0.4610 H   0  0  0  0  0  0  0  0  0  0  0  0
   -0.3094   -0.1796   -3.1532 H   0  0  0  0  0  0  0  0  0  0  0  0
    4.7493   -0.4657   -2.7864 H   0  0  0  0  0  0  0  0  0  0  0  0
    3.8193   -0.3513   -4.2052 H   0  0  0  0  0  0  0  0  0  0  0  0
   -0.4596    0.4626    1.6703 H   0  0  0  0  0  0  0  0  0  0  0  0
   -2.3048    0.8680   -2.2117 H   0  0  0  0  0  0  0  0  0  0  0  0
   -4.7940    1.0248    0.7108 H   0  0  0  0  0  0  0  0  0  0  0  0
   -5.6002    2.8679   -0.2956 H   0  0  0  0  0  0  0  0  0  0  0  0
   -3.9082    3.1891   -0.6329 H   0  0  0  0  0  0  0  0  0  0  0  0
   -4.1537    2.2022   -2.8977 H   0  0  0  0  0  0  0  0  0  0  0  0
   -5.3133    3.4885   -2.6484 H   0  0  0  0  0  0  0  0  0  0  0  0
   -6.9923    2.0744   -2.8531 H   0  0  0  0  0  0  0  0  0  0  0  0
   -7.0478    0.8153   -0.9569 H   0  0  0  0  0  0  0  0  0  0  0  0
   -6.8722   -0.3426   -2.2713 H   0  0  0  0  0  0  0  0  0  0  0  0
   -5.2807   -0.8920   -0.4743 H   0  0  0  0  0  0  0  0  0  0  0  0
   -4.4185   -0.4130   -1.9220 H   0  0  0  0  0  0  0  0  0  0  0  0
  1  2  1  0
  2  3  1  0
  3  4  2  0
  4  5  1  0
  5  6  2  0
  6  7  1  0
  7  8  2  0
  8  9  1  0
  7 10  1  0
  4 11  1  0
  2 12  1  0
 12 13  1  0
 13 14  2  0
 14 15  1  0
 15 16  2  0
 16 17  1  0
 17 18  2  0
 18 19  1  0
 15 20  1  0
 20 21  1  0
 21 22  2  0
 22 23  1  0
 23 24  1  0
 23 25  1  0
 25 26  1  0
 26 27  1  0
 27 28  1  0
 28 29  1  0
 29 30  1  0
  8  3  1  0
 18 13  1  0
 24 20  2  0
 30 25  1  0
  1 31  1  0
  1 32  1  0
  1 33  1  0
  2 34  1  1
  5 35  1  0
  6 36  1  0
 14 37  1  0
 16 38  1  0
 19 39  1  0
 19 40  1  0
 21 41  1  0
 24 42  1  0
 25 43  1  0
 26 44  1  0
 26 45  1  0
 27 46  1  0
 27 47  1  0
 28 48  1  0
 29 49  1  0
 29 50  1  0
 30 51  1  0
 30 52  1  0
M  END
>  <energy_abs>  (149) 
29.468871931044795

>  <SMILES>  (149) 
C[C@H](c1c(ccc(c1Cl)F)Cl)Oc2cc(cnc2N)c3cnn(c3)C4CCNCC4

>  <cluster_no>  (149) 
149

>  <fda_drugs_id>  (149) 
KTEIFNKAUNYNJU-GFCCVEGCSA-N

>  <initial_conformation_id>  (149) 
146

>  <minimize_method>  (149) 
MMFF

$$$$

     RDKit          3D

 52 55  0  0  0  0  0  0  0  0999 V2000
    3.5807    1.7169    1.8028 C   0  0  0  0  0  0  0  0  0  0  0  0
    3.2356    0.3852    1.1327 C   0  0  2  0  0  0  0  0  0  0  0  0
    4.1048   -0.7501    1.6631 C   0  0  0  0  0  0  0  0  0  0  0  0
    3.5696   -1.6932    2.5736 C   0  0  0  0  0  0  0  0  0  0  0  0
    4.3461   -2.7429    3.0838 C   0  0  0  0  0  0  0  0  0  0  0  0
    5.6790   -2.8749    2.7133 C   0  0  0  0  0  0  0  0  0  0  0  0
    6.2289   -1.9549    1.8331 C   0  0  0  0  0  0  0  0  0  0  0  0
    5.4661   -0.9010    1.3094 C   0  0  0  0  0  0  0  0  0  0  0  0
    6.2825    0.1795    0.2275 Cl  0  0  0  0  0  0  0  0  0  0  0  0
    7.5205   -2.0963    1.4969 F   0  0  0  0  0  0  0  0  0  0  0  0
    1.9368   -1.6197    3.1467 Cl  0  0  0  0  0  0  0  0  0  0  0  0
    3.3869    0.5382   -0.2900 O   0  0  0  0  0  0  0  0  0  0  0  0
    2.3688   -0.0141   -1.0235 C   0  0  0  0  0  0  0  0  0  0  0  0
    1.0602    0.4607   -0.9226 C   0  0  0  0  0  0  0  0  0  0  0  0
    0.0613   -0.0928   -1.7257 C   0  0  0  0  0  0  0  0  0  0  0  0
    0.4499   -1.0954   -2.6105 C   0  0  0  0  0  0  0  0  0  0  0  0
    1.7187   -1.5538   -2.7476 N   0  0  0  0  0  0  0  0  0  0  0  0
    2.6671   -0.9995   -1.9733 C   0  0  0  0  0  0  0  0  0  0  0  0
    3.9853   -1.4546   -2.1402 N   0  0  0  0  0  0  0  0  0  0  0  0
   -1.3152    0.3609   -1.6643 C   0  0  0  0  0  0  0  0  0  0  0  0
   -2.3431    0.3314   -2.6351 C   0  0  0  0  0  0  0  0  0  0  0  0
   -3.4924    0.8425   -2.1876 N   0  0  0  0  0  0  0  0  0  0  0  0
   -3.2118    1.2048   -0.9206 N   0  0  0  0  0  0  0  0  0  0  0  0
   -1.9187    0.9312   -0.5619 C   0  0  0  0  0  0  0  0  0  0  0  0
   -4.2285    1.8267   -0.0705 C   0  0  0  0  0  0  0  0  0  0  0  0
   -4.4042    3.3105   -0.4056 C   0  0  0  0  0  0  0  0  0  0  0  0
   -5.1468    3.5309   -1.7279 C   0  0  0  0  0  0  0  0  0  0  0  0
   -6.0846    2.4623   -2.0850 N   0  0  0  0  0  0  0  0  0  0  0  0
   -6.6453    1.8174   -0.9025 C   0  0  0  0  0  0  0  0  0  0  0  0
   -5.5732    1.0768   -0.0995 C   0  0  0  0  0  0  0  0  0  0  0  0
    4.5862    2.0649    1.5508 H   0  0  0  0  0  0  0  0  0  0  0  0
    3.5044    1.6442    2.8909 H   0  0  0  0  0  0  0  0  0  0  0  0
    2.8942    2.4977    1.4583 H   0  0  0  0  0  0  0  0  0  0  0  0
    2.1840    0.1969    1.3673 H   0  0  0  0  0  0  0  0  0  0  0  0
    3.9156   -3.4598    3.7811 H   0  0  0  0  0  0  0  0  0  0  0  0
    6.2915   -3.6811    3.1066 H   0  0  0  0  0  0  0  0  0  0  0  0
    0.8361    1.2786   -0.2460 H   0  0  0  0  0  0  0  0  0  0  0  0
   -0.2654   -1.5869   -3.2666 H   0  0  0  0  0  0  0  0  0  0  0  0
    4.5740   -0.6419   -2.3181 H   0  0  0  0  0  0  0  0  0  0  0  0
    4.3068   -1.8455   -1.2613 H   0  0  0  0  0  0  0  0  0  0  0  0
   -2.3020   -0.0370   -3.6527 H   0  0  0  0  0  0  0  0  0  0  0  0
   -1.5555    1.1540    0.4320 H   0  0  0  0  0  0  0  0  0  0  0  0
   -3.8277    1.7487    0.9496 H   0  0  0  0  0  0  0  0  0  0  0  0
   -4.9801    3.7798    0.4039 H   0  0  0  0  0  0  0  0  0  0  0  0
   -3.4350    3.8249   -0.4391 H   0  0  0  0  0  0  0  0  0  0  0  0
   -4.4250    3.6444   -2.5466 H   0  0  0  0  0  0  0  0  0  0  0  0
   -5.6907    4.4808   -1.6755 H   0  0  0  0  0  0  0  0  0  0  0  0
   -5.5443    1.7534   -2.6039 H   0  0  0  0  0  0  0  0  0  0  0  0
   -7.1508    2.5619   -0.2739 H   0  0  0  0  0  0  0  0  0  0  0  0
   -7.4204    1.1049   -1.2103 H   0  0  0  0  0  0  0  0  0  0  0  0
   -5.4479    0.0582   -0.4876 H   0  0  0  0  0  0  0  0  0  0  0  0
   -5.9429    0.9659    0.9286 H   0  0  0  0  0  0  0  0  0  0  0  0
  1  2  1  0
  2  3  1  0
  3  4  2  0
  4  5  1  0
  5  6  2  0
  6  7  1  0
  7  8  2  0
  8  9  1  0
  7 10  1  0
  4 11  1  0
  2 12  1  0
 12 13  1  0
 13 14  2  0
 14 15  1  0
 15 16  2  0
 16 17  1  0
 17 18  2  0
 18 19  1  0
 15 20  1  0
 20 21  1  0
 21 22  2  0
 22 23  1  0
 23 24  1  0
 23 25  1  0
 25 26  1  0
 26 27  1  0
 27 28  1  0
 28 29  1  0
 29 30  1  0
  8  3  1  0
 18 13  1  0
 24 20  2  0
 30 25  1  0
  1 31  1  0
  1 32  1  0
  1 33  1  0
  2 34  1  6
  5 35  1  0
  6 36  1  0
 14 37  1  0
 16 38  1  0
 19 39  1  0
 19 40  1  0
 21 41  1  0
 24 42  1  0
 25 43  1  0
 26 44  1  0
 26 45  1  0
 27 46  1  0
 27 47  1  0
 28 48  1  0
 29 49  1  0
 29 50  1  0
 30 51  1  0
 30 52  1  0
M  END
>  <energy_abs>  (150) 
39.34335581507662

>  <SMILES>  (150) 
C[C@H](c1c(ccc(c1Cl)F)Cl)Oc2cc(cnc2N)c3cnn(c3)C4CCNCC4

>  <cluster_no>  (150) 
150

>  <fda_drugs_id>  (150) 
KTEIFNKAUNYNJU-GFCCVEGCSA-N

>  <initial_conformation_id>  (150) 
145

>  <minimize_method>  (150) 
MMFF

$$$$

     RDKit          3D

 52 55  0  0  0  0  0  0  0  0999 V2000
    6.0073   -1.1473   -0.7847 C   0  0  0  0  0  0  0  0  0  0  0  0
    4.6517   -0.5261   -0.4313 C   0  0  2  0  0  0  0  0  0  0  0  0
    4.2139   -0.9274    0.9764 C   0  0  0  0  0  0  0  0  0  0  0  0
    4.3367   -0.0093    2.0486 C   0  0  0  0  0  0  0  0  0  0  0  0
    3.9215   -0.3378    3.3452 C   0  0  0  0  0  0  0  0  0  0  0  0
    3.3791   -1.5910    3.6092 C   0  0  0  0  0  0  0  0  0  0  0  0
    3.2679   -2.5133    2.5771 C   0  0  0  0  0  0  0  0  0  0  0  0
    3.6852   -2.2042    1.2766 C   0  0  0  0  0  0  0  0  0  0  0  0
    3.5059   -3.4533    0.0889 Cl  0  0  0  0  0  0  0  0  0  0  0  0
    2.7315   -3.7096    2.8526 F   0  0  0  0  0  0  0  0  0  0  0  0
    5.0124    1.5744    1.8565 Cl  0  0  0  0  0  0  0  0  0  0  0  0
    3.7027   -0.9070   -1.4523 O   0  0  0  0  0  0  0  0  0  0  0  0
    2.7115    0.0284   -1.6071 C   0  0  0  0  0  0  0  0  0  0  0  0
    1.5050   -0.1543   -0.9350 C   0  0  0  0  0  0  0  0  0  0  0  0
    0.4730    0.7651   -1.1114 C   0  0  0  0  0  0  0  0  0  0  0  0
    0.7228    1.8296   -1.9737 C   0  0  0  0  0  0  0  0  0  0  0  0
    1.8770    2.0105   -2.6632 N   0  0  0  0  0  0  0  0  0  0  0  0
    2.8489    1.0997   -2.4976 C   0  0  0  0  0  0  0  0  0  0  0  0
    4.0099    1.2514   -3.2710 N   0  0  0  0  0  0  0  0  0  0  0  0
   -0.7978    0.5903   -0.4366 C   0  0  0  0  0  0  0  0  0  0  0  0
   -1.1347   -0.1456    0.7229 C   0  0  0  0  0  0  0  0  0  0  0  0
   -2.4405   -0.1140    0.9958 N   0  0  0  0  0  0  0  0  0  0  0  0
   -2.9584    0.6410    0.0055 N   0  0  0  0  0  0  0  0  0  0  0  0
   -2.0060    1.0984   -0.8661 C   0  0  0  0  0  0  0  0  0  0  0  0
   -4.4113    0.8041   -0.0738 C   0  0  0  0  0  0  0  0  0  0  0  0
   -4.8516    2.2729   -0.1958 C   0  0  0  0  0  0  0  0  0  0  0  0
   -5.7143    2.5179   -1.4303 C   0  0  0  0  0  0  0  0  0  0  0  0
   -5.0581    1.9682   -2.6059 N   0  0  0  0  0  0  0  0  0  0  0  0
   -4.8922    0.5144   -2.5651 C   0  0  0  0  0  0  0  0  0  0  0  0
   -5.0140   -0.0933   -1.1657 C   0  0  0  0  0  0  0  0  0  0  0  0
    6.3103   -0.8545   -1.7999 H   0  0  0  0  0  0  0  0  0  0  0  0
    6.7846   -0.8232   -0.0829 H   0  0  0  0  0  0  0  0  0  0  0  0
    5.9730   -2.2401   -0.7762 H   0  0  0  0  0  0  0  0  0  0  0  0
    4.7954    0.5573   -0.5005 H   0  0  0  0  0  0  0  0  0  0  0  0
    4.0208    0.3825    4.1572 H   0  0  0  0  0  0  0  0  0  0  0  0
    3.0428   -1.8546    4.6060 H   0  0  0  0  0  0  0  0  0  0  0  0
    1.3711   -1.0288   -0.3068 H   0  0  0  0  0  0  0  0  0  0  0  0
   -0.0193    2.6016   -2.1580 H   0  0  0  0  0  0  0  0  0  0  0  0
    4.1491    0.3907   -3.7960 H   0  0  0  0  0  0  0  0  0  0  0  0
    4.8113    1.3671   -2.6644 H   0  0  0  0  0  0  0  0  0  0  0  0
   -0.4854   -0.7121    1.3775 H   0  0  0  0  0  0  0  0  0  0  0  0
   -2.2792    1.7062   -1.7195 H   0  0  0  0  0  0  0  0  0  0  0  0
   -4.7879    0.4365    0.8936 H   0  0  0  0  0  0  0  0  0  0  0  0
   -3.9875    2.9511   -0.2110 H   0  0  0  0  0  0  0  0  0  0  0  0
   -5.4314    2.5510    0.6949 H   0  0  0  0  0  0  0  0  0  0  0  0
   -5.8481    3.5978   -1.5604 H   0  0  0  0  0  0  0  0  0  0  0  0
   -6.7165    2.0891   -1.3044 H   0  0  0  0  0  0  0  0  0  0  0  0
   -5.5557    2.2357   -3.4549 H   0  0  0  0  0  0  0  0  0  0  0  0
   -5.6402    0.0403   -3.2178 H   0  0  0  0  0  0  0  0  0  0  0  0
   -3.9098    0.2743   -2.9977 H   0  0  0  0  0  0  0  0  0  0  0  0
   -4.5529   -1.0897   -1.1596 H   0  0  0  0  0  0  0  0  0  0  0  0
   -6.0808   -0.2488   -0.9395 H   0  0  0  0  0  0  0  0  0  0  0  0
  1  2  1  0
  2  3  1  0
  3  4  2  0
  4  5  1  0
  5  6  2  0
  6  7  1  0
  7  8  2  0
  8  9  1  0
  7 10  1  0
  4 11  1  0
  2 12  1  0
 12 13  1  0
 13 14  2  0
 14 15  1  0
 15 16  2  0
 16 17  1  0
 17 18  2  0
 18 19  1  0
 15 20  1  0
 20 21  1  0
 21 22  2  0
 22 23  1  0
 23 24  1  0
 23 25  1  0
 25 26  1  0
 26 27  1  0
 27 28  1  0
 28 29  1  0
 29 30  1  0
  8  3  1  0
 18 13  1  0
 24 20  2  0
 30 25  1  0
  1 31  1  0
  1 32  1  0
  1 33  1  0
  2 34  1  1
  5 35  1  0
  6 36  1  0
 14 37  1  0
 16 38  1  0
 19 39  1  0
 19 40  1  0
 21 41  1  0
 24 42  1  0
 25 43  1  0
 26 44  1  0
 26 45  1  0
 27 46  1  0
 27 47  1  0
 28 48  1  0
 29 49  1  0
 29 50  1  0
 30 51  1  0
 30 52  1  0
M  END
>  <energy_abs>  (151) 
39.68362661286172

>  <SMILES>  (151) 
C[C@H](c1c(ccc(c1Cl)F)Cl)Oc2cc(cnc2N)c3cnn(c3)C4CCNCC4

>  <cluster_no>  (151) 
151

>  <fda_drugs_id>  (151) 
KTEIFNKAUNYNJU-GFCCVEGCSA-N

>  <initial_conformation_id>  (151) 
144

>  <minimize_method>  (151) 
MMFF

$$$$

     RDKit          3D

 52 55  0  0  0  0  0  0  0  0999 V2000
    6.1287   -0.5759    0.0252 C   0  0  0  0  0  0  0  0  0  0  0  0
    4.6197   -0.3143    0.0137 C   0  0  2  0  0  0  0  0  0  0  0  0
    3.9380   -0.9290    1.2301 C   0  0  0  0  0  0  0  0  0  0  0  0
    3.4841   -0.1057    2.2850 C   0  0  0  0  0  0  0  0  0  0  0  0
    2.8426   -0.6402    3.4091 C   0  0  0  0  0  0  0  0  0  0  0  0
    2.6544   -2.0115    3.5249 C   0  0  0  0  0  0  0  0  0  0  0  0
    3.1037   -2.8394    2.5080 C   0  0  0  0  0  0  0  0  0  0  0  0
    3.7326   -2.3207    1.3673 C   0  0  0  0  0  0  0  0  0  0  0  0
    4.2326   -3.4674    0.1652 Cl  0  0  0  0  0  0  0  0  0  0  0  0
    2.9223   -4.1610    2.6454 F   0  0  0  0  0  0  0  0  0  0  0  0
    3.6831    1.6122    2.2771 Cl  0  0  0  0  0  0  0  0  0  0  0  0
    4.0816   -0.8196   -1.2273 O   0  0  0  0  0  0  0  0  0  0  0  0
    3.1167    0.0067   -1.7467 C   0  0  0  0  0  0  0  0  0  0  0  0
    1.8403    0.0573   -1.1819 C   0  0  0  0  0  0  0  0  0  0  0  0
    0.8789    0.8890   -1.7543 C   0  0  0  0  0  0  0  0  0  0  0  0
    1.2547    1.6245   -2.8765 C   0  0  0  0  0  0  0  0  0  0  0  0
    2.4794    1.5723   -3.4538 N   0  0  0  0  0  0  0  0  0  0  0  0
    3.3923    0.7584   -2.8964 C   0  0  0  0  0  0  0  0  0  0  0  0
    4.6477    0.6752   -3.5176 N   0  0  0  0  0  0  0  0  0  0  0  0
   -0.4486    0.9786   -1.1900 C   0  0  0  0  0  0  0  0  0  0  0  0
   -0.8764    1.0113    0.1555 C   0  0  0  0  0  0  0  0  0  0  0  0
   -2.2044    1.0925    0.2724 N   0  0  0  0  0  0  0  0  0  0  0  0
   -2.6373    1.1020   -1.0040 N   0  0  0  0  0  0  0  0  0  0  0  0
   -1.6181    1.0356   -1.9176 C   0  0  0  0  0  0  0  0  0  0  0  0
   -4.0645    1.1986   -1.3031 C   0  0  0  0  0  0  0  0  0  0  0  0
   -4.7994   -0.1005   -0.9394 C   0  0  0  0  0  0  0  0  0  0  0  0
   -6.2894    0.1659   -0.7707 C   0  0  0  0  0  0  0  0  0  0  0  0
   -6.5826    1.1209    0.2950 N   0  0  0  0  0  0  0  0  0  0  0  0
   -5.5136    2.0755    0.5694 C   0  0  0  0  0  0  0  0  0  0  0  0
   -4.7142    2.4411   -0.6753 C   0  0  0  0  0  0  0  0  0  0  0  0
    6.5936   -0.1763    0.9323 H   0  0  0  0  0  0  0  0  0  0  0  0
    6.6020   -0.1031   -0.8441 H   0  0  0  0  0  0  0  0  0  0  0  0
    6.3723   -1.6422   -0.0423 H   0  0  0  0  0  0  0  0  0  0  0  0
    4.5178    0.7774    0.0087 H   0  0  0  0  0  0  0  0  0  0  0  0
    2.4904    0.0100    4.2095 H   0  0  0  0  0  0  0  0  0  0  0  0
    2.1712   -2.4388    4.3977 H   0  0  0  0  0  0  0  0  0  0  0  0
    1.5915   -0.5695   -0.3294 H   0  0  0  0  0  0  0  0  0  0  0  0
    0.5652    2.3085   -3.3648 H   0  0  0  0  0  0  0  0  0  0  0  0
    5.3636    0.9032   -2.8371 H   0  0  0  0  0  0  0  0  0  0  0  0
    4.8018   -0.2949   -3.7815 H   0  0  0  0  0  0  0  0  0  0  0  0
   -0.2740    0.9922    1.0546 H   0  0  0  0  0  0  0  0  0  0  0  0
   -1.8116    1.0242   -2.9820 H   0  0  0  0  0  0  0  0  0  0  0  0
   -4.1226    1.3308   -2.3944 H   0  0  0  0  0  0  0  0  0  0  0  0
   -4.6392   -0.8478   -1.7285 H   0  0  0  0  0  0  0  0  0  0  0  0
   -4.4007   -0.5443   -0.0166 H   0  0  0  0  0  0  0  0  0  0  0  0
   -6.8115   -0.7697   -0.5544 H   0  0  0  0  0  0  0  0  0  0  0  0
   -6.6963    0.5453   -1.7154 H   0  0  0  0  0  0  0  0  0  0  0  0
   -7.4530    1.6079    0.0918 H   0  0  0  0  0  0  0  0  0  0  0  0
   -4.8505    1.6547    1.3344 H   0  0  0  0  0  0  0  0  0  0  0  0
   -5.9525    2.9813    1.0071 H   0  0  0  0  0  0  0  0  0  0  0  0
   -5.3959    2.8965   -1.4084 H   0  0  0  0  0  0  0  0  0  0  0  0
   -3.9683    3.2095   -0.4330 H   0  0  0  0  0  0  0  0  0  0  0  0
  1  2  1  0
  2  3  1  0
  3  4  2  0
  4  5  1  0
  5  6  2  0
  6  7  1  0
  7  8  2  0
  8  9  1  0
  7 10  1  0
  4 11  1  0
  2 12  1  0
 12 13  1  0
 13 14  2  0
 14 15  1  0
 15 16  2  0
 16 17  1  0
 17 18  2  0
 18 19  1  0
 15 20  1  0
 20 21  1  0
 21 22  2  0
 22 23  1  0
 23 24  1  0
 23 25  1  0
 25 26  1  0
 26 27  1  0
 27 28  1  0
 28 29  1  0
 29 30  1  0
  8  3  1  0
 18 13  1  0
 24 20  2  0
 30 25  1  0
  1 31  1  0
  1 32  1  0
  1 33  1  0
  2 34  1  6
  5 35  1  0
  6 36  1  0
 14 37  1  0
 16 38  1  0
 19 39  1  0
 19 40  1  0
 21 41  1  0
 24 42  1  0
 25 43  1  0
 26 44  1  0
 26 45  1  0
 27 46  1  0
 27 47  1  0
 28 48  1  0
 29 49  1  0
 29 50  1  0
 30 51  1  0
 30 52  1  0
M  END
>  <energy_abs>  (152) 
39.92818314722596

>  <SMILES>  (152) 
C[C@H](c1c(ccc(c1Cl)F)Cl)Oc2cc(cnc2N)c3cnn(c3)C4CCNCC4

>  <cluster_no>  (152) 
152

>  <fda_drugs_id>  (152) 
KTEIFNKAUNYNJU-GFCCVEGCSA-N

>  <initial_conformation_id>  (152) 
143

>  <minimize_method>  (152) 
MMFF

$$$$

     RDKit          3D

 52 55  0  0  0  0  0  0  0  0999 V2000
    3.4077    0.9196    1.7512 C   0  0  0  0  0  0  0  0  0  0  0  0
    3.3060   -0.4239    1.0082 C   0  0  2  0  0  0  0  0  0  0  0  0
    4.4225   -1.3760    1.4446 C   0  0  0  0  0  0  0  0  0  0  0  0
    5.7680   -1.2089    1.0302 C   0  0  0  0  0  0  0  0  0  0  0  0
    6.7792   -2.0871    1.4568 C   0  0  0  0  0  0  0  0  0  0  0  0
    6.4817   -3.1452    2.3141 C   0  0  0  0  0  0  0  0  0  0  0  0
    5.1722   -3.3201    2.7433 C   0  0  0  0  0  0  0  0  0  0  0  0
    4.1495   -2.4533    2.3241 C   0  0  0  0  0  0  0  0  0  0  0  0
    2.5617   -2.7589    2.9528 Cl  0  0  0  0  0  0  0  0  0  0  0  0
    4.9092   -4.3385    3.5782 F   0  0  0  0  0  0  0  0  0  0  0  0
    6.2932    0.0812   -0.0000 Cl  0  0  0  0  0  0  0  0  0  0  0  0
    3.3602   -0.2821   -0.4277 O   0  0  0  0  0  0  0  0  0  0  0  0
    2.3084    0.4120   -0.9703 C   0  0  0  0  0  0  0  0  0  0  0  0
    0.9929   -0.0374   -0.8734 C   0  0  0  0  0  0  0  0  0  0  0  0
   -0.0306    0.6893   -1.4814 C   0  0  0  0  0  0  0  0  0  0  0  0
    0.3395    1.8241   -2.1921 C   0  0  0  0  0  0  0  0  0  0  0  0
    1.6126    2.2743   -2.3228 N   0  0  0  0  0  0  0  0  0  0  0  0
    2.5774    1.5614   -1.7201 C   0  0  0  0  0  0  0  0  0  0  0  0
    3.8679    2.0819   -1.8023 N   0  0  0  0  0  0  0  0  0  0  0  0
   -1.4131    0.2687   -1.3754 C   0  0  0  0  0  0  0  0  0  0  0  0
   -1.9784   -1.0158   -1.2307 C   0  0  0  0  0  0  0  0  0  0  0  0
   -3.3089   -0.9827   -1.1450 N   0  0  0  0  0  0  0  0  0  0  0  0
   -3.6143    0.3272   -1.2260 N   0  0  0  0  0  0  0  0  0  0  0  0
   -2.5048    1.1138   -1.3686 C   0  0  0  0  0  0  0  0  0  0  0  0
   -5.0220    0.7190   -1.1652 C   0  0  0  0  0  0  0  0  0  0  0  0
   -5.3524    1.6483    0.0160 C   0  0  0  0  0  0  0  0  0  0  0  0
   -5.1441    3.1294   -0.2969 C   0  0  0  0  0  0  0  0  0  0  0  0
   -5.8102    3.5072   -1.5406 N   0  0  0  0  0  0  0  0  0  0  0  0
   -5.3019    2.7510   -2.6871 C   0  0  0  0  0  0  0  0  0  0  0  0
   -5.5444    1.2539   -2.5051 C   0  0  0  0  0  0  0  0  0  0  0  0
    4.2618    1.5166    1.4181 H   0  0  0  0  0  0  0  0  0  0  0  0
    3.4896    0.7684    2.8303 H   0  0  0  0  0  0  0  0  0  0  0  0
    2.5177    1.5343    1.5696 H   0  0  0  0  0  0  0  0  0  0  0  0
    2.3364   -0.8723    1.2611 H   0  0  0  0  0  0  0  0  0  0  0  0
    7.8098   -1.9395    1.1272 H   0  0  0  0  0  0  0  0  0  0  0  0
    7.2587   -3.8254    2.6525 H   0  0  0  0  0  0  0  0  0  0  0  0
    0.7703   -0.9389   -0.3237 H   0  0  0  0  0  0  0  0  0  0  0  0
   -0.3964    2.4312   -2.7075 H   0  0  0  0  0  0  0  0  0  0  0  0
    3.8651    2.8461   -2.4733 H   0  0  0  0  0  0  0  0  0  0  0  0
    4.5464    1.3534   -2.0033 H   0  0  0  0  0  0  0  0  0  0  0  0
   -1.4787   -1.9779   -1.1928 H   0  0  0  0  0  0  0  0  0  0  0  0
   -2.5725    2.1882   -1.4377 H   0  0  0  0  0  0  0  0  0  0  0  0
   -5.5561   -0.2276   -0.9740 H   0  0  0  0  0  0  0  0  0  0  0  0
   -6.4107    1.5026    0.2773 H   0  0  0  0  0  0  0  0  0  0  0  0
   -4.7758    1.3712    0.9067 H   0  0  0  0  0  0  0  0  0  0  0  0
   -5.5675    3.7253    0.5233 H   0  0  0  0  0  0  0  0  0  0  0  0
   -4.0798    3.3845   -0.3416 H   0  0  0  0  0  0  0  0  0  0  0  0
   -5.6785    4.5091   -1.7079 H   0  0  0  0  0  0  0  0  0  0  0  0
   -4.2406    2.9663   -2.8540 H   0  0  0  0  0  0  0  0  0  0  0  0
   -5.8263    3.0853   -3.5891 H   0  0  0  0  0  0  0  0  0  0  0  0
   -6.6270    1.0737   -2.5429 H   0  0  0  0  0  0  0  0  0  0  0  0
   -5.1049    0.7036   -3.3517 H   0  0  0  0  0  0  0  0  0  0  0  0
  1  2  1  0
  2  3  1  0
  3  4  2  0
  4  5  1  0
  5  6  2  0
  6  7  1  0
  7  8  2  0
  8  9  1  0
  7 10  1  0
  4 11  1  0
  2 12  1  0
 12 13  1  0
 13 14  2  0
 14 15  1  0
 15 16  2  0
 16 17  1  0
 17 18  2  0
 18 19  1  0
 15 20  1  0
 20 21  1  0
 21 22  2  0
 22 23  1  0
 23 24  1  0
 23 25  1  0
 25 26  1  0
 26 27  1  0
 27 28  1  0
 28 29  1  0
 29 30  1  0
  8  3  1  0
 18 13  1  0
 24 20  2  0
 30 25  1  0
  1 31  1  0
  1 32  1  0
  1 33  1  0
  2 34  1  6
  5 35  1  0
  6 36  1  0
 14 37  1  0
 16 38  1  0
 19 39  1  0
 19 40  1  0
 21 41  1  0
 24 42  1  0
 25 43  1  0
 26 44  1  0
 26 45  1  0
 27 46  1  0
 27 47  1  0
 28 48  1  0
 29 49  1  0
 29 50  1  0
 30 51  1  0
 30 52  1  0
M  END
>  <energy_abs>  (153) 
25.379441222070383

>  <SMILES>  (153) 
C[C@H](c1c(ccc(c1Cl)F)Cl)Oc2cc(cnc2N)c3cnn(c3)C4CCNCC4

>  <cluster_no>  (153) 
153

>  <fda_drugs_id>  (153) 
KTEIFNKAUNYNJU-GFCCVEGCSA-N

>  <initial_conformation_id>  (153) 
142

>  <minimize_method>  (153) 
MMFF

$$$$

     RDKit          3D

 52 55  0  0  0  0  0  0  0  0999 V2000
    5.7199    0.7290    1.5232 C   0  0  0  0  0  0  0  0  0  0  0  0
    4.2925    0.4384    1.0474 C   0  0  2  0  0  0  0  0  0  0  0  0
    3.8806   -0.9801    1.4306 C   0  0  0  0  0  0  0  0  0  0  0  0
    3.0568   -1.2043    2.5584 C   0  0  0  0  0  0  0  0  0  0  0  0
    2.6636   -2.4957    2.9354 C   0  0  0  0  0  0  0  0  0  0  0  0
    3.0995   -3.6000    2.2102 C   0  0  0  0  0  0  0  0  0  0  0  0
    3.9253   -3.4070    1.1147 C   0  0  0  0  0  0  0  0  0  0  0  0
    4.3201   -2.1210    0.7188 C   0  0  0  0  0  0  0  0  0  0  0  0
    5.3815   -2.0283   -0.6487 Cl  0  0  0  0  0  0  0  0  0  0  0  0
    4.3627   -4.4888    0.4478 F   0  0  0  0  0  0  0  0  0  0  0  0
    2.4876    0.0839    3.5679 Cl  0  0  0  0  0  0  0  0  0  0  0  0
    4.2537    0.6810   -0.3674 O   0  0  0  0  0  0  0  0  0  0  0  0
    3.0531    0.9044   -0.9892 C   0  0  0  0  0  0  0  0  0  0  0  0
    1.8074    0.9942   -0.3658 C   0  0  0  0  0  0  0  0  0  0  0  0
    0.6564    1.2313   -1.1266 C   0  0  0  0  0  0  0  0  0  0  0  0
    0.8274    1.3724   -2.5002 C   0  0  0  0  0  0  0  0  0  0  0  0
    2.0192    1.2927   -3.1375 N   0  0  0  0  0  0  0  0  0  0  0  0
    3.1093    1.0660   -2.3856 C   0  0  0  0  0  0  0  0  0  0  0  0
    4.3419    0.9462   -3.0580 N   0  0  0  0  0  0  0  0  0  0  0  0
   -0.6487    1.3295   -0.4949 C   0  0  0  0  0  0  0  0  0  0  0  0
   -1.0119    1.6085    0.8451 C   0  0  0  0  0  0  0  0  0  0  0  0
   -2.3320    1.5952    1.0399 N   0  0  0  0  0  0  0  0  0  0  0  0
   -2.8318    1.3104   -0.1783 N   0  0  0  0  0  0  0  0  0  0  0  0
   -1.8599    1.1352   -1.1268 C   0  0  0  0  0  0  0  0  0  0  0  0
   -4.2793    1.2151   -0.3541 C   0  0  0  0  0  0  0  0  0  0  0  0
   -4.8113    2.1825   -1.4265 C   0  0  0  0  0  0  0  0  0  0  0  0
   -5.1847    1.4443   -2.7056 C   0  0  0  0  0  0  0  0  0  0  0  0
   -6.1912    0.4065   -2.4938 N   0  0  0  0  0  0  0  0  0  0  0  0
   -6.1103   -0.2718   -1.1969 C   0  0  0  0  0  0  0  0  0  0  0  0
   -4.7124   -0.2370   -0.5946 C   0  0  0  0  0  0  0  0  0  0  0  0
    6.4617    0.1019    1.0191 H   0  0  0  0  0  0  0  0  0  0  0  0
    5.9904    1.7668    1.2896 H   0  0  0  0  0  0  0  0  0  0  0  0
    5.8241    0.5776    2.6036 H   0  0  0  0  0  0  0  0  0  0  0  0
    3.6720    1.1994    1.5274 H   0  0  0  0  0  0  0  0  0  0  0  0
    2.0243   -2.6452    3.8012 H   0  0  0  0  0  0  0  0  0  0  0  0
    2.8111   -4.6057    2.4960 H   0  0  0  0  0  0  0  0  0  0  0  0
    1.7076    0.8834    0.7042 H   0  0  0  0  0  0  0  0  0  0  0  0
   -0.0090    1.5714   -3.1641 H   0  0  0  0  0  0  0  0  0  0  0  0
    5.0045    1.5616   -2.5912 H   0  0  0  0  0  0  0  0  0  0  0  0
    4.6832   -0.0011   -2.8937 H   0  0  0  0  0  0  0  0  0  0  0  0
   -0.3707    1.8250    1.6902 H   0  0  0  0  0  0  0  0  0  0  0  0
   -2.1141    0.8812   -2.1459 H   0  0  0  0  0  0  0  0  0  0  0  0
   -4.7097    1.5456    0.6031 H   0  0  0  0  0  0  0  0  0  0  0  0
   -4.0864    2.9767   -1.6508 H   0  0  0  0  0  0  0  0  0  0  0  0
   -5.7071    2.6858   -1.0374 H   0  0  0  0  0  0  0  0  0  0  0  0
   -5.5595    2.1553   -3.4499 H   0  0  0  0  0  0  0  0  0  0  0  0
   -4.2897    0.9881   -3.1462 H   0  0  0  0  0  0  0  0  0  0  0  0
   -7.1348    0.7966   -2.6066 H   0  0  0  0  0  0  0  0  0  0  0  0
   -6.4331   -1.3107   -1.3232 H   0  0  0  0  0  0  0  0  0  0  0  0
   -6.8188    0.1958   -0.4989 H   0  0  0  0  0  0  0  0  0  0  0  0
   -4.0101   -0.7564   -1.2629 H   0  0  0  0  0  0  0  0  0  0  0  0
   -4.6954   -0.7911    0.3545 H   0  0  0  0  0  0  0  0  0  0  0  0
  1  2  1  0
  2  3  1  0
  3  4  2  0
  4  5  1  0
  5  6  2  0
  6  7  1  0
  7  8  2  0
  8  9  1  0
  7 10  1  0
  4 11  1  0
  2 12  1  0
 12 13  1  0
 13 14  2  0
 14 15  1  0
 15 16  2  0
 16 17  1  0
 17 18  2  0
 18 19  1  0
 15 20  1  0
 20 21  1  0
 21 22  2  0
 22 23  1  0
 23 24  1  0
 23 25  1  0
 25 26  1  0
 26 27  1  0
 27 28  1  0
 28 29  1  0
 29 30  1  0
  8  3  1  0
 18 13  1  0
 24 20  2  0
 30 25  1  0
  1 31  1  0
  1 32  1  0
  1 33  1  0
  2 34  1  1
  5 35  1  0
  6 36  1  0
 14 37  1  0
 16 38  1  0
 19 39  1  0
 19 40  1  0
 21 41  1  0
 24 42  1  0
 25 43  1  0
 26 44  1  0
 26 45  1  0
 27 46  1  0
 27 47  1  0
 28 48  1  0
 29 49  1  0
 29 50  1  0
 30 51  1  0
 30 52  1  0
M  END
>  <energy_abs>  (154) 
38.250611258312404

>  <SMILES>  (154) 
C[C@H](c1c(ccc(c1Cl)F)Cl)Oc2cc(cnc2N)c3cnn(c3)C4CCNCC4

>  <cluster_no>  (154) 
154

>  <fda_drugs_id>  (154) 
KTEIFNKAUNYNJU-GFCCVEGCSA-N

>  <initial_conformation_id>  (154) 
141

>  <minimize_method>  (154) 
MMFF

$$$$

     RDKit          3D

 52 55  0  0  0  0  0  0  0  0999 V2000
    2.8974   -1.8637   -1.0402 C   0  0  0  0  0  0  0  0  0  0  0  0
    3.7710   -1.0013   -0.1137 C   0  0  2  0  0  0  0  0  0  0  0  0
    4.4868   -1.8568    0.9380 C   0  0  0  0  0  0  0  0  0  0  0  0
    5.8824   -2.0860    0.8582 C   0  0  0  0  0  0  0  0  0  0  0  0
    6.5578   -2.8702    1.8124 C   0  0  0  0  0  0  0  0  0  0  0  0
    5.8559   -3.4396    2.8712 C   0  0  0  0  0  0  0  0  0  0  0  0
    4.4835   -3.2311    2.9679 C   0  0  0  0  0  0  0  0  0  0  0  0
    3.7960   -2.4565    2.0195 C   0  0  0  0  0  0  0  0  0  0  0  0
    2.0773   -2.3126    2.2340 Cl  0  0  0  0  0  0  0  0  0  0  0  0
    3.8218   -3.8172    3.9920 F   0  0  0  0  0  0  0  0  0  0  0  0
    6.8816   -1.3989   -0.3954 Cl  0  0  0  0  0  0  0  0  0  0  0  0
    3.0460    0.0230    0.5927 O   0  0  0  0  0  0  0  0  0  0  0  0
    2.4735    0.9633   -0.2229 C   0  0  0  0  0  0  0  0  0  0  0  0
    1.0949    0.8830   -0.4209 C   0  0  0  0  0  0  0  0  0  0  0  0
    0.4444    1.8463   -1.1937 C   0  0  0  0  0  0  0  0  0  0  0  0
    1.2465    2.8569   -1.7193 C   0  0  0  0  0  0  0  0  0  0  0  0
    2.5836    2.9765   -1.5099 N   0  0  0  0  0  0  0  0  0  0  0  0
    3.1794    2.0534   -0.7396 C   0  0  0  0  0  0  0  0  0  0  0  0
    4.5486    2.2248   -0.5035 N   0  0  0  0  0  0  0  0  0  0  0  0
   -0.9923    1.8228   -1.4233 C   0  0  0  0  0  0  0  0  0  0  0  0
   -1.8587    2.7996   -1.9781 C   0  0  0  0  0  0  0  0  0  0  0  0
   -3.1384    2.4225   -1.9814 N   0  0  0  0  0  0  0  0  0  0  0  0
   -3.1072    1.1871   -1.4495 N   0  0  0  0  0  0  0  0  0  0  0  0
   -1.8425    0.7820   -1.1029 C   0  0  0  0  0  0  0  0  0  0  0  0
   -4.3444    0.4284   -1.2713 C   0  0  0  0  0  0  0  0  0  0  0  0
   -5.1675    0.9991   -0.1053 C   0  0  0  0  0  0  0  0  0  0  0  0
   -6.6279    0.5799   -0.2218 C   0  0  0  0  0  0  0  0  0  0  0  0
   -7.2686    1.0112   -1.4645 N   0  0  0  0  0  0  0  0  0  0  0  0
   -6.3384    1.2851   -2.5657 C   0  0  0  0  0  0  0  0  0  0  0  0
   -5.1572    0.3215   -2.5740 C   0  0  0  0  0  0  0  0  0  0  0  0
    1.9855   -2.2203   -0.5447 H   0  0  0  0  0  0  0  0  0  0  0  0
    3.4532   -2.7283   -1.4171 H   0  0  0  0  0  0  0  0  0  0  0  0
    2.5640   -1.2805   -1.9100 H   0  0  0  0  0  0  0  0  0  0  0  0
    4.5070   -0.4999   -0.7476 H   0  0  0  0  0  0  0  0  0  0  0  0
    7.6292   -3.0440    1.7299 H   0  0  0  0  0  0  0  0  0  0  0  0
    6.3562   -4.0511    3.6196 H   0  0  0  0  0  0  0  0  0  0  0  0
    0.5489    0.0713    0.0482 H   0  0  0  0  0  0  0  0  0  0  0  0
    0.8369    3.6449   -2.3464 H   0  0  0  0  0  0  0  0  0  0  0  0
    4.7281    2.1411    0.4901 H   0  0  0  0  0  0  0  0  0  0  0  0
    5.0852    1.5095   -0.9823 H   0  0  0  0  0  0  0  0  0  0  0  0
   -1.6171    3.7820   -2.3671 H   0  0  0  0  0  0  0  0  0  0  0  0
   -1.6730   -0.1915   -0.6608 H   0  0  0  0  0  0  0  0  0  0  0  0
   -4.0242   -0.5915   -1.0033 H   0  0  0  0  0  0  0  0  0  0  0  0
   -4.7501    0.6410    0.8448 H   0  0  0  0  0  0  0  0  0  0  0  0
   -5.1054    2.0963   -0.0692 H   0  0  0  0  0  0  0  0  0  0  0  0
   -7.1918    0.9710    0.6325 H   0  0  0  0  0  0  0  0  0  0  0  0
   -6.6983   -0.5116   -0.1587 H   0  0  0  0  0  0  0  0  0  0  0  0
   -7.8444    1.8373   -1.3003 H   0  0  0  0  0  0  0  0  0  0  0  0
   -5.9840    2.3212   -2.5034 H   0  0  0  0  0  0  0  0  0  0  0  0
   -6.8850    1.1895   -3.5124 H   0  0  0  0  0  0  0  0  0  0  0  0
   -4.5295    0.4946   -3.4597 H   0  0  0  0  0  0  0  0  0  0  0  0
   -5.5447   -0.7038   -2.6732 H   0  0  0  0  0  0  0  0  0  0  0  0
  1  2  1  0
  2  3  1  0
  3  4  2  0
  4  5  1  0
  5  6  2  0
  6  7  1  0
  7  8  2  0
  8  9  1  0
  7 10  1  0
  4 11  1  0
  2 12  1  0
 12 13  1  0
 13 14  2  0
 14 15  1  0
 15 16  2  0
 16 17  1  0
 17 18  2  0
 18 19  1  0
 15 20  1  0
 20 21  1  0
 21 22  2  0
 22 23  1  0
 23 24  1  0
 23 25  1  0
 25 26  1  0
 26 27  1  0
 27 28  1  0
 28 29  1  0
 29 30  1  0
  8  3  1  0
 18 13  1  0
 24 20  2  0
 30 25  1  0
  1 31  1  0
  1 32  1  0
  1 33  1  0
  2 34  1  6
  5 35  1  0
  6 36  1  0
 14 37  1  0
 16 38  1  0
 19 39  1  0
 19 40  1  0
 21 41  1  0
 24 42  1  0
 25 43  1  0
 26 44  1  0
 26 45  1  0
 27 46  1  0
 27 47  1  0
 28 48  1  0
 29 49  1  0
 29 50  1  0
 30 51  1  0
 30 52  1  0
M  END
>  <energy_abs>  (155) 
40.92733165107228

>  <SMILES>  (155) 
C[C@H](c1c(ccc(c1Cl)F)Cl)Oc2cc(cnc2N)c3cnn(c3)C4CCNCC4

>  <cluster_no>  (155) 
155

>  <fda_drugs_id>  (155) 
KTEIFNKAUNYNJU-GFCCVEGCSA-N

>  <initial_conformation_id>  (155) 
140

>  <minimize_method>  (155) 
MMFF

$$$$

     RDKit          3D

 52 55  0  0  0  0  0  0  0  0999 V2000
    1.7834   -1.8229    1.9551 C   0  0  0  0  0  0  0  0  0  0  0  0
    2.7943   -1.3752    0.8962 C   0  0  2  0  0  0  0  0  0  0  0  0
    4.1418   -2.0628    1.1187 C   0  0  0  0  0  0  0  0  0  0  0  0
    4.5139   -3.1752    0.3260 C   0  0  0  0  0  0  0  0  0  0  0  0
    5.7458   -3.8228    0.4998 C   0  0  0  0  0  0  0  0  0  0  0  0
    6.6340   -3.3882    1.4752 C   0  0  0  0  0  0  0  0  0  0  0  0
    6.2813   -2.3157    2.2812 C   0  0  0  0  0  0  0  0  0  0  0  0
    5.0537   -1.6563    2.1221 C   0  0  0  0  0  0  0  0  0  0  0  0
    4.7271   -0.3594    3.2267 Cl  0  0  0  0  0  0  0  0  0  0  0  0
    7.1482   -1.9263    3.2284 F   0  0  0  0  0  0  0  0  0  0  0  0
    3.4799   -3.8399   -0.8956 Cl  0  0  0  0  0  0  0  0  0  0  0  0
    2.9845    0.0436    0.9198 O   0  0  0  0  0  0  0  0  0  0  0  0
    2.0735    0.8825    0.3356 C   0  0  0  0  0  0  0  0  0  0  0  0
    0.9567    0.4988   -0.4075 C   0  0  0  0  0  0  0  0  0  0  0  0
    0.1076    1.4724   -0.9458 C   0  0  0  0  0  0  0  0  0  0  0  0
    0.4378    2.8031   -0.7122 C   0  0  0  0  0  0  0  0  0  0  0  0
    1.5130    3.2110    0.0005 N   0  0  0  0  0  0  0  0  0  0  0  0
    2.3112    2.2585    0.5137 C   0  0  0  0  0  0  0  0  0  0  0  0
    3.4256    2.6885    1.2608 N   0  0  0  0  0  0  0  0  0  0  0  0
   -1.0613    1.0945   -1.7168 C   0  0  0  0  0  0  0  0  0  0  0  0
   -1.3058   -0.0326   -2.5291 C   0  0  0  0  0  0  0  0  0  0  0  0
   -2.5253   -0.0244   -3.0682 N   0  0  0  0  0  0  0  0  0  0  0  0
   -3.0929    1.1019   -2.5835 N   0  0  0  0  0  0  0  0  0  0  0  0
   -2.2352    1.8164   -1.7915 C   0  0  0  0  0  0  0  0  0  0  0  0
   -4.4554    1.4269   -3.0090 C   0  0  0  0  0  0  0  0  0  0  0  0
   -5.4453    0.2966   -2.6772 C   0  0  0  0  0  0  0  0  0  0  0  0
   -5.8218    0.3021   -1.1995 C   0  0  0  0  0  0  0  0  0  0  0  0
   -6.4024    1.5865   -0.8070 N   0  0  0  0  0  0  0  0  0  0  0  0
   -5.4690    2.6864   -1.0351 C   0  0  0  0  0  0  0  0  0  0  0  0
   -5.0139    2.7646   -2.4929 C   0  0  0  0  0  0  0  0  0  0  0  0
    1.6698   -2.9120    1.9606 H   0  0  0  0  0  0  0  0  0  0  0  0
    2.0768   -1.5064    2.9606 H   0  0  0  0  0  0  0  0  0  0  0  0
    0.7988   -1.3812    1.7738 H   0  0  0  0  0  0  0  0  0  0  0  0
    2.4287   -1.6460   -0.0955 H   0  0  0  0  0  0  0  0  0  0  0  0
    6.0149   -4.6729   -0.1246 H   0  0  0  0  0  0  0  0  0  0  0  0
    7.5906   -3.8813    1.6202 H   0  0  0  0  0  0  0  0  0  0  0  0
    0.7165   -0.5455   -0.5668 H   0  0  0  0  0  0  0  0  0  0  0  0
   -0.1605    3.6184   -1.1097 H   0  0  0  0  0  0  0  0  0  0  0  0
    3.3597    2.2614    2.1823 H   0  0  0  0  0  0  0  0  0  0  0  0
    4.2549    2.2826    0.8355 H   0  0  0  0  0  0  0  0  0  0  0  0
   -0.6438   -0.8570   -2.7611 H   0  0  0  0  0  0  0  0  0  0  0  0
   -2.5202    2.7539   -1.3376 H   0  0  0  0  0  0  0  0  0  0  0  0
   -4.3750    1.5038   -4.1026 H   0  0  0  0  0  0  0  0  0  0  0  0
   -5.0444   -0.6869   -2.9486 H   0  0  0  0  0  0  0  0  0  0  0  0
   -6.3540    0.4333   -3.2791 H   0  0  0  0  0  0  0  0  0  0  0  0
   -6.5579   -0.4870   -1.0095 H   0  0  0  0  0  0  0  0  0  0  0  0
   -4.9520    0.0736   -0.5720 H   0  0  0  0  0  0  0  0  0  0  0  0
   -7.2611    1.7476   -1.3347 H   0  0  0  0  0  0  0  0  0  0  0  0
   -5.9615    3.6267   -0.7621 H   0  0  0  0  0  0  0  0  0  0  0  0
   -4.6153    2.5842   -0.3570 H   0  0  0  0  0  0  0  0  0  0  0  0
   -4.2873    3.5755   -2.6181 H   0  0  0  0  0  0  0  0  0  0  0  0
   -5.8810    3.0368   -3.1106 H   0  0  0  0  0  0  0  0  0  0  0  0
  1  2  1  0
  2  3  1  0
  3  4  2  0
  4  5  1  0
  5  6  2  0
  6  7  1  0
  7  8  2  0
  8  9  1  0
  7 10  1  0
  4 11  1  0
  2 12  1  0
 12 13  1  0
 13 14  2  0
 14 15  1  0
 15 16  2  0
 16 17  1  0
 17 18  2  0
 18 19  1  0
 15 20  1  0
 20 21  1  0
 21 22  2  0
 22 23  1  0
 23 24  1  0
 23 25  1  0
 25 26  1  0
 26 27  1  0
 27 28  1  0
 28 29  1  0
 29 30  1  0
  8  3  1  0
 18 13  1  0
 24 20  2  0
 30 25  1  0
  1 31  1  0
  1 32  1  0
  1 33  1  0
  2 34  1  6
  5 35  1  0
  6 36  1  0
 14 37  1  0
 16 38  1  0
 19 39  1  0
 19 40  1  0
 21 41  1  0
 24 42  1  0
 25 43  1  0
 26 44  1  0
 26 45  1  0
 27 46  1  0
 27 47  1  0
 28 48  1  0
 29 49  1  0
 29 50  1  0
 30 51  1  0
 30 52  1  0
M  END
>  <energy_abs>  (156) 
36.04082780759184

>  <SMILES>  (156) 
C[C@H](c1c(ccc(c1Cl)F)Cl)Oc2cc(cnc2N)c3cnn(c3)C4CCNCC4

>  <cluster_no>  (156) 
156

>  <fda_drugs_id>  (156) 
KTEIFNKAUNYNJU-GFCCVEGCSA-N

>  <initial_conformation_id>  (156) 
139

>  <minimize_method>  (156) 
MMFF

$$$$

     RDKit          3D

 52 55  0  0  0  0  0  0  0  0999 V2000
    5.8541   -0.1229    1.5195 C   0  0  0  0  0  0  0  0  0  0  0  0
    4.3256   -0.0670    1.4506 C   0  0  2  0  0  0  0  0  0  0  0  0
    3.7518   -1.3794    0.9237 C   0  0  0  0  0  0  0  0  0  0  0  0
    3.1939   -2.3223    1.8215 C   0  0  0  0  0  0  0  0  0  0  0  0
    2.6754   -3.5483    1.3754 C   0  0  0  0  0  0  0  0  0  0  0  0
    2.6924   -3.8641    0.0231 C   0  0  0  0  0  0  0  0  0  0  0  0
    3.2443   -2.9608   -0.8757 C   0  0  0  0  0  0  0  0  0  0  0  0
    3.7803   -1.7354   -0.4441 C   0  0  0  0  0  0  0  0  0  0  0  0
    4.4840   -0.7223   -1.6662 Cl  0  0  0  0  0  0  0  0  0  0  0  0
    3.2745   -3.3015   -2.1732 F   0  0  0  0  0  0  0  0  0  0  0  0
    3.1320   -2.0558    3.5321 Cl  0  0  0  0  0  0  0  0  0  0  0  0
    3.9689    1.0749    0.6467 O   0  0  0  0  0  0  0  0  0  0  0  0
    2.7721    1.6247    1.0311 C   0  0  0  0  0  0  0  0  0  0  0  0
    1.6191    1.2721    0.3293 C   0  0  0  0  0  0  0  0  0  0  0  0
    0.3973    1.8493    0.6728 C   0  0  0  0  0  0  0  0  0  0  0  0
    0.4211    2.7697    1.7198 C   0  0  0  0  0  0  0  0  0  0  0  0
    1.5326    3.1476    2.3998 N   0  0  0  0  0  0  0  0  0  0  0  0
    2.7015    2.5998    2.0328 C   0  0  0  0  0  0  0  0  0  0  0  0
    3.8524    3.0321    2.7099 N   0  0  0  0  0  0  0  0  0  0  0  0
   -0.8399    1.5332   -0.0264 C   0  0  0  0  0  0  0  0  0  0  0  0
   -2.1329    2.1020    0.0780 C   0  0  0  0  0  0  0  0  0  0  0  0
   -3.0163    1.5503   -0.7580 N   0  0  0  0  0  0  0  0  0  0  0  0
   -2.2975    0.6157   -1.4066 N   0  0  0  0  0  0  0  0  0  0  0  0
   -0.9934    0.5624   -0.9969 C   0  0  0  0  0  0  0  0  0  0  0  0
   -2.9109   -0.1892   -2.4614 C   0  0  0  0  0  0  0  0  0  0  0  0
   -4.2431   -0.8206   -2.0254 C   0  0  0  0  0  0  0  0  0  0  0  0
   -5.4250   -0.0675   -2.6232 C   0  0  0  0  0  0  0  0  0  0  0  0
   -5.4084   -0.1035   -4.0875 N   0  0  0  0  0  0  0  0  0  0  0  0
   -4.0790    0.0241   -4.6825 C   0  0  0  0  0  0  0  0  0  0  0  0
   -3.0422    0.6353   -3.7501 C   0  0  0  0  0  0  0  0  0  0  0  0
    6.2012   -0.9395    2.1644 H   0  0  0  0  0  0  0  0  0  0  0  0
    6.3072   -0.2526    0.5302 H   0  0  0  0  0  0  0  0  0  0  0  0
    6.2466    0.8216    1.9136 H   0  0  0  0  0  0  0  0  0  0  0  0
    3.9843    0.1208    2.4740 H   0  0  0  0  0  0  0  0  0  0  0  0
    2.2561   -4.2623    2.0856 H   0  0  0  0  0  0  0  0  0  0  0  0
    2.2960   -4.8109   -0.3348 H   0  0  0  0  0  0  0  0  0  0  0  0
    1.6986    0.5683   -0.4922 H   0  0  0  0  0  0  0  0  0  0  0  0
   -0.4807    3.2672    2.0662 H   0  0  0  0  0  0  0  0  0  0  0  0
    4.2456    2.2631    3.2423 H   0  0  0  0  0  0  0  0  0  0  0  0
    4.5435    3.3117    2.0186 H   0  0  0  0  0  0  0  0  0  0  0  0
   -2.4734    2.9012    0.7230 H   0  0  0  0  0  0  0  0  0  0  0  0
   -0.3072   -0.1451   -1.4374 H   0  0  0  0  0  0  0  0  0  0  0  0
   -2.2082   -1.0146   -2.6433 H   0  0  0  0  0  0  0  0  0  0  0  0
   -4.3370   -0.8645   -0.9342 H   0  0  0  0  0  0  0  0  0  0  0  0
   -4.2763   -1.8616   -2.3745 H   0  0  0  0  0  0  0  0  0  0  0  0
   -5.4290    0.9731   -2.2770 H   0  0  0  0  0  0  0  0  0  0  0  0
   -6.3608   -0.5197   -2.2776 H   0  0  0  0  0  0  0  0  0  0  0  0
   -6.0226    0.6337   -4.4385 H   0  0  0  0  0  0  0  0  0  0  0  0
   -4.1516    0.6240   -5.5976 H   0  0  0  0  0  0  0  0  0  0  0  0
   -3.7435   -0.9730   -4.9957 H   0  0  0  0  0  0  0  0  0  0  0  0
   -2.0697    0.6889   -4.2547 H   0  0  0  0  0  0  0  0  0  0  0  0
   -3.3257    1.6738   -3.5298 H   0  0  0  0  0  0  0  0  0  0  0  0
  1  2  1  0
  2  3  1  0
  3  4  2  0
  4  5  1  0
  5  6  2  0
  6  7  1  0
  7  8  2  0
  8  9  1  0
  7 10  1  0
  4 11  1  0
  2 12  1  0
 12 13  1  0
 13 14  2  0
 14 15  1  0
 15 16  2  0
 16 17  1  0
 17 18  2  0
 18 19  1  0
 15 20  1  0
 20 21  1  0
 21 22  2  0
 22 23  1  0
 23 24  1  0
 23 25  1  0
 25 26  1  0
 26 27  1  0
 27 28  1  0
 28 29  1  0
 29 30  1  0
  8  3  1  0
 18 13  1  0
 24 20  2  0
 30 25  1  0
  1 31  1  0
  1 32  1  0
  1 33  1  0
  2 34  1  1
  5 35  1  0
  6 36  1  0
 14 37  1  0
 16 38  1  0
 19 39  1  0
 19 40  1  0
 21 41  1  0
 24 42  1  0
 25 43  1  0
 26 44  1  0
 26 45  1  0
 27 46  1  0
 27 47  1  0
 28 48  1  0
 29 49  1  0
 29 50  1  0
 30 51  1  0
 30 52  1  0
M  END
>  <energy_abs>  (157) 
38.856132963335725

>  <SMILES>  (157) 
C[C@H](c1c(ccc(c1Cl)F)Cl)Oc2cc(cnc2N)c3cnn(c3)C4CCNCC4

>  <cluster_no>  (157) 
157

>  <fda_drugs_id>  (157) 
KTEIFNKAUNYNJU-GFCCVEGCSA-N

>  <initial_conformation_id>  (157) 
137

>  <minimize_method>  (157) 
MMFF

$$$$

     RDKit          3D

 52 55  0  0  0  0  0  0  0  0999 V2000
    2.0689   -1.7978    2.2266 C   0  0  0  0  0  0  0  0  0  0  0  0
    2.9790   -1.4002    1.0615 C   0  0  2  0  0  0  0  0  0  0  0  0
    4.3607   -2.0352    1.2236 C   0  0  0  0  0  0  0  0  0  0  0  0
    4.7035   -3.1938    0.4859 C   0  0  0  0  0  0  0  0  0  0  0  0
    5.9641   -3.7961    0.6072 C   0  0  0  0  0  0  0  0  0  0  0  0
    6.9121   -3.2687    1.4747 C   0  0  0  0  0  0  0  0  0  0  0  0
    6.5915   -2.1476    2.2254 C   0  0  0  0  0  0  0  0  0  0  0  0
    5.3357   -1.5327    2.1182 C   0  0  0  0  0  0  0  0  0  0  0  0
    5.0569   -0.1668    3.1500 Cl  0  0  0  0  0  0  0  0  0  0  0  0
    7.5177   -1.6676    3.0692 F   0  0  0  0  0  0  0  0  0  0  0  0
    3.5978   -3.9728   -0.5974 Cl  0  0  0  0  0  0  0  0  0  0  0  0
    3.1263    0.0208    0.9705 O   0  0  0  0  0  0  0  0  0  0  0  0
    2.1384    0.7945    0.4229 C   0  0  0  0  0  0  0  0  0  0  0  0
    0.9813    0.3322   -0.2053 C   0  0  0  0  0  0  0  0  0  0  0  0
    0.0539    1.2444   -0.7217 C   0  0  0  0  0  0  0  0  0  0  0  0
    0.3498    2.5964   -0.5825 C   0  0  0  0  0  0  0  0  0  0  0  0
    1.4623    3.0796    0.0175 N   0  0  0  0  0  0  0  0  0  0  0  0
    2.3364    2.1853    0.5096 C   0  0  0  0  0  0  0  0  0  0  0  0
    3.4924    2.6935    1.1347 N   0  0  0  0  0  0  0  0  0  0  0  0
   -1.1558    0.7856   -1.3789 C   0  0  0  0  0  0  0  0  0  0  0  0
   -1.4373   -0.4194   -2.0631 C   0  0  0  0  0  0  0  0  0  0  0  0
   -2.6903   -0.4770   -2.5195 N   0  0  0  0  0  0  0  0  0  0  0  0
   -3.2247    0.6975   -2.1338 N   0  0  0  0  0  0  0  0  0  0  0  0
   -2.3433    1.4850   -1.4436 C   0  0  0  0  0  0  0  0  0  0  0  0
   -4.6121    0.9962   -2.4662 C   0  0  0  0  0  0  0  0  0  0  0  0
   -5.4811    1.1514   -1.2141 C   0  0  0  0  0  0  0  0  0  0  0  0
   -6.9145    1.4989   -1.5995 C   0  0  0  0  0  0  0  0  0  0  0  0
   -6.9562    2.6982   -2.4350 N   0  0  0  0  0  0  0  0  0  0  0  0
   -6.1966    2.5258   -3.6724 C   0  0  0  0  0  0  0  0  0  0  0  0
   -4.7322    2.2229   -3.3760 C   0  0  0  0  0  0  0  0  0  0  0  0
    1.0590   -1.3975    2.0941 H   0  0  0  0  0  0  0  0  0  0  0  0
    2.4290   -1.4015    3.1811 H   0  0  0  0  0  0  0  0  0  0  0  0
    1.9921   -2.8864    2.3169 H   0  0  0  0  0  0  0  0  0  0  0  0
    2.5460   -1.7505    0.1233 H   0  0  0  0  0  0  0  0  0  0  0  0
    6.2090   -4.6841    0.0274 H   0  0  0  0  0  0  0  0  0  0  0  0
    7.8912   -3.7262    1.5785 H   0  0  0  0  0  0  0  0  0  0  0  0
    0.7728   -0.7270   -0.2924 H   0  0  0  0  0  0  0  0  0  0  0  0
   -0.3099    3.3684   -0.9690 H   0  0  0  0  0  0  0  0  0  0  0  0
    3.5254    2.3091    2.0766 H   0  0  0  0  0  0  0  0  0  0  0  0
    4.2978    2.3000    0.6552 H   0  0  0  0  0  0  0  0  0  0  0  0
   -0.7805   -1.2585   -2.2532 H   0  0  0  0  0  0  0  0  0  0  0  0
   -2.6413    2.4509   -1.0592 H   0  0  0  0  0  0  0  0  0  0  0  0
   -4.9828    0.1254   -3.0264 H   0  0  0  0  0  0  0  0  0  0  0  0
   -5.0796    1.9377   -0.5614 H   0  0  0  0  0  0  0  0  0  0  0  0
   -5.4700    0.2240   -0.6285 H   0  0  0  0  0  0  0  0  0  0  0  0
   -7.4970    1.6800   -0.6896 H   0  0  0  0  0  0  0  0  0  0  0  0
   -7.3868    0.6570   -2.1201 H   0  0  0  0  0  0  0  0  0  0  0  0
   -7.9272    2.9161   -2.6635 H   0  0  0  0  0  0  0  0  0  0  0  0
   -6.2606    3.4483   -4.2596 H   0  0  0  0  0  0  0  0  0  0  0  0
   -6.6382    1.7272   -4.2809 H   0  0  0  0  0  0  0  0  0  0  0  0
   -4.2682    3.0993   -2.9047 H   0  0  0  0  0  0  0  0  0  0  0  0
   -4.1925    2.0515   -4.3155 H   0  0  0  0  0  0  0  0  0  0  0  0
  1  2  1  0
  2  3  1  0
  3  4  2  0
  4  5  1  0
  5  6  2  0
  6  7  1  0
  7  8  2  0
  8  9  1  0
  7 10  1  0
  4 11  1  0
  2 12  1  0
 12 13  1  0
 13 14  2  0
 14 15  1  0
 15 16  2  0
 16 17  1  0
 17 18  2  0
 18 19  1  0
 15 20  1  0
 20 21  1  0
 21 22  2  0
 22 23  1  0
 23 24  1  0
 23 25  1  0
 25 26  1  0
 26 27  1  0
 27 28  1  0
 28 29  1  0
 29 30  1  0
  8  3  1  0
 18 13  1  0
 24 20  2  0
 30 25  1  0
  1 31  1  0
  1 32  1  0
  1 33  1  0
  2 34  1  6
  5 35  1  0
  6 36  1  0
 14 37  1  0
 16 38  1  0
 19 39  1  0
 19 40  1  0
 21 41  1  0
 24 42  1  0
 25 43  1  0
 26 44  1  0
 26 45  1  0
 27 46  1  0
 27 47  1  0
 28 48  1  0
 29 49  1  0
 29 50  1  0
 30 51  1  0
 30 52  1  0
M  END
>  <energy_abs>  (158) 
32.49335808554496

>  <SMILES>  (158) 
C[C@H](c1c(ccc(c1Cl)F)Cl)Oc2cc(cnc2N)c3cnn(c3)C4CCNCC4

>  <cluster_no>  (158) 
158

>  <fda_drugs_id>  (158) 
KTEIFNKAUNYNJU-GFCCVEGCSA-N

>  <initial_conformation_id>  (158) 
136

>  <minimize_method>  (158) 
MMFF

$$$$

     RDKit          3D

 52 55  0  0  0  0  0  0  0  0999 V2000
    2.1194   -2.9877    0.1330 C   0  0  0  0  0  0  0  0  0  0  0  0
    2.9366   -1.6988    0.2549 C   0  0  2  0  0  0  0  0  0  0  0  0
    4.1567   -1.9111    1.1464 C   0  0  0  0  0  0  0  0  0  0  0  0
    5.4295   -2.1285    0.5654 C   0  0  0  0  0  0  0  0  0  0  0  0
    6.5766   -2.3042    1.3529 C   0  0  0  0  0  0  0  0  0  0  0  0
    6.4847   -2.2845    2.7383 C   0  0  0  0  0  0  0  0  0  0  0  0
    5.2434   -2.1024    3.3300 C   0  0  0  0  0  0  0  0  0  0  0  0
    4.0857   -1.9247    2.5584 C   0  0  0  0  0  0  0  0  0  0  0  0
    2.5990   -1.7589    3.4336 Cl  0  0  0  0  0  0  0  0  0  0  0  0
    5.1780   -2.1069    4.6710 F   0  0  0  0  0  0  0  0  0  0  0  0
    5.6708   -2.2315   -1.1471 Cl  0  0  0  0  0  0  0  0  0  0  0  0
    2.0752   -0.6673    0.7796 O   0  0  0  0  0  0  0  0  0  0  0  0
    1.8675    0.3532   -0.1089 C   0  0  0  0  0  0  0  0  0  0  0  0
    0.5891    0.4935   -0.6438 C   0  0  0  0  0  0  0  0  0  0  0  0
    0.3279    1.5317   -1.5387 C   0  0  0  0  0  0  0  0  0  0  0  0
    1.3886    2.3841   -1.8387 C   0  0  0  0  0  0  0  0  0  0  0  0
    2.6355    2.2869   -1.3091 N   0  0  0  0  0  0  0  0  0  0  0  0
    2.8523    1.2888   -0.4361 C   0  0  0  0  0  0  0  0  0  0  0  0
    4.1317    1.2311    0.1196 N   0  0  0  0  0  0  0  0  0  0  0  0
   -0.9807    1.7222   -2.1351 C   0  0  0  0  0  0  0  0  0  0  0  0
   -1.3676    2.3386   -3.3471 C   0  0  0  0  0  0  0  0  0  0  0  0
   -2.6897    2.3316   -3.5328 N   0  0  0  0  0  0  0  0  0  0  0  0
   -3.1647    1.7051   -2.4385 N   0  0  0  0  0  0  0  0  0  0  0  0
   -2.1766    1.3283   -1.5702 C   0  0  0  0  0  0  0  0  0  0  0  0
   -4.6078    1.5422   -2.2796 C   0  0  0  0  0  0  0  0  0  0  0  0
   -5.1740    2.4535   -1.1791 C   0  0  0  0  0  0  0  0  0  0  0  0
   -5.3692    1.7030    0.1326 C   0  0  0  0  0  0  0  0  0  0  0  0
   -6.2033    0.5086    0.0158 N   0  0  0  0  0  0  0  0  0  0  0  0
   -6.3200   -0.0343   -1.3355 C   0  0  0  0  0  0  0  0  0  0  0  0
   -5.0098    0.0710   -2.1025 C   0  0  0  0  0  0  0  0  0  0  0  0
    2.7268   -3.8137   -0.2508 H   0  0  0  0  0  0  0  0  0  0  0  0
    1.2731   -2.8355   -0.5467 H   0  0  0  0  0  0  0  0  0  0  0  0
    1.6919   -3.2949    1.0930 H   0  0  0  0  0  0  0  0  0  0  0  0
    3.2477   -1.4279   -0.7602 H   0  0  0  0  0  0  0  0  0  0  0  0
    7.5462   -2.4634    0.8850 H   0  0  0  0  0  0  0  0  0  0  0  0
    7.3642   -2.4215    3.3601 H   0  0  0  0  0  0  0  0  0  0  0  0
   -0.1806   -0.2208   -0.3655 H   0  0  0  0  0  0  0  0  0  0  0  0
    1.2690    3.2180   -2.5257 H   0  0  0  0  0  0  0  0  0  0  0  0
    4.6312    2.0537   -0.2093 H   0  0  0  0  0  0  0  0  0  0  0  0
    4.0659    1.2018    1.1319 H   0  0  0  0  0  0  0  0  0  0  0  0
   -0.7433    2.7911   -4.1070 H   0  0  0  0  0  0  0  0  0  0  0  0
   -2.4061    0.8291   -0.6392 H   0  0  0  0  0  0  0  0  0  0  0  0
   -5.0423    1.8897   -3.2282 H   0  0  0  0  0  0  0  0  0  0  0  0
   -4.5378    3.3323   -1.0186 H   0  0  0  0  0  0  0  0  0  0  0  0
   -6.1498    2.8375   -1.5060 H   0  0  0  0  0  0  0  0  0  0  0  0
   -5.8119    2.3763    0.8759 H   0  0  0  0  0  0  0  0  0  0  0  0
   -4.3962    1.4048    0.5378 H   0  0  0  0  0  0  0  0  0  0  0  0
   -7.1345    0.6859    0.3945 H   0  0  0  0  0  0  0  0  0  0  0  0
   -6.6237   -1.0842   -1.2659 H   0  0  0  0  0  0  0  0  0  0  0  0
   -7.1142    0.4909   -1.8803 H   0  0  0  0  0  0  0  0  0  0  0  0
   -5.1132   -0.4015   -3.0866 H   0  0  0  0  0  0  0  0  0  0  0  0
   -4.2386   -0.5024   -1.5731 H   0  0  0  0  0  0  0  0  0  0  0  0
  1  2  1  0
  2  3  1  0
  3  4  2  0
  4  5  1  0
  5  6  2  0
  6  7  1  0
  7  8  2  0
  8  9  1  0
  7 10  1  0
  4 11  1  0
  2 12  1  0
 12 13  1  0
 13 14  2  0
 14 15  1  0
 15 16  2  0
 16 17  1  0
 17 18  2  0
 18 19  1  0
 15 20  1  0
 20 21  1  0
 21 22  2  0
 22 23  1  0
 23 24  1  0
 23 25  1  0
 25 26  1  0
 26 27  1  0
 27 28  1  0
 28 29  1  0
 29 30  1  0
  8  3  1  0
 18 13  1  0
 24 20  2  0
 30 25  1  0
  1 31  1  0
  1 32  1  0
  1 33  1  0
  2 34  1  6
  5 35  1  0
  6 36  1  0
 14 37  1  0
 16 38  1  0
 19 39  1  0
 19 40  1  0
 21 41  1  0
 24 42  1  0
 25 43  1  0
 26 44  1  0
 26 45  1  0
 27 46  1  0
 27 47  1  0
 28 48  1  0
 29 49  1  0
 29 50  1  0
 30 51  1  0
 30 52  1  0
M  END
>  <energy_abs>  (159) 
28.54437622653587

>  <SMILES>  (159) 
C[C@H](c1c(ccc(c1Cl)F)Cl)Oc2cc(cnc2N)c3cnn(c3)C4CCNCC4

>  <cluster_no>  (159) 
159

>  <fda_drugs_id>  (159) 
KTEIFNKAUNYNJU-GFCCVEGCSA-N

>  <initial_conformation_id>  (159) 
134

>  <minimize_method>  (159) 
MMFF

$$$$

     RDKit          3D

 52 55  0  0  0  0  0  0  0  0999 V2000
    2.1437   -2.1172    3.0385 C   0  0  0  0  0  0  0  0  0  0  0  0
    2.6596   -1.4405    1.7670 C   0  0  2  0  0  0  0  0  0  0  0  0
    4.0652   -1.9116    1.4059 C   0  0  0  0  0  0  0  0  0  0  0  0
    4.2617   -2.8212    0.3398 C   0  0  0  0  0  0  0  0  0  0  0  0
    5.5421   -3.2692   -0.0170 C   0  0  0  0  0  0  0  0  0  0  0  0
    6.6588   -2.8321    0.6835 C   0  0  0  0  0  0  0  0  0  0  0  0
    6.4897   -1.9542    1.7434 C   0  0  0  0  0  0  0  0  0  0  0  0
    5.2174   -1.4944    2.1129 C   0  0  0  0  0  0  0  0  0  0  0  0
    5.1522   -0.4073    3.4611 Cl  0  0  0  0  0  0  0  0  0  0  0  0
    7.5814   -1.5563    2.4144 F   0  0  0  0  0  0  0  0  0  0  0  0
    2.9525   -3.4656   -0.5936 Cl  0  0  0  0  0  0  0  0  0  0  0  0
    2.6292   -0.0134    1.9620 O   0  0  0  0  0  0  0  0  0  0  0  0
    2.0789    0.6760    0.9120 C   0  0  0  0  0  0  0  0  0  0  0  0
    0.7326    0.5253    0.5730 C   0  0  0  0  0  0  0  0  0  0  0  0
    0.1943    1.2706   -0.4786 C   0  0  0  0  0  0  0  0  0  0  0  0
    1.0636    2.1476   -1.1242 C   0  0  0  0  0  0  0  0  0  0  0  0
    2.3668    2.3366   -0.7928 N   0  0  0  0  0  0  0  0  0  0  0  0
    2.8564    1.6197    0.2309 C   0  0  0  0  0  0  0  0  0  0  0  0
    4.1964    1.8368    0.5916 N   0  0  0  0  0  0  0  0  0  0  0  0
   -1.2015    1.1268   -0.8619 C   0  0  0  0  0  0  0  0  0  0  0  0
   -2.1831    0.1949   -0.4456 C   0  0  0  0  0  0  0  0  0  0  0  0
   -3.3703    0.3943   -1.0210 N   0  0  0  0  0  0  0  0  0  0  0  0
   -3.1625    1.4549   -1.8209 N   0  0  0  0  0  0  0  0  0  0  0  0
   -1.8808    1.9319   -1.7553 C   0  0  0  0  0  0  0  0  0  0  0  0
   -4.2459    1.9887   -2.6423 C   0  0  0  0  0  0  0  0  0  0  0  0
   -5.5092    2.3009   -1.8224 C   0  0  0  0  0  0  0  0  0  0  0  0
   -6.5549    1.2044   -1.9865 C   0  0  0  0  0  0  0  0  0  0  0  0
   -6.9760    1.0254   -3.3768 N   0  0  0  0  0  0  0  0  0  0  0  0
   -5.9409    1.3099   -4.3687 C   0  0  0  0  0  0  0  0  0  0  0  0
   -4.5326    1.0706   -3.8395 C   0  0  0  0  0  0  0  0  0  0  0  0
    1.1131   -1.8003    3.2379 H   0  0  0  0  0  0  0  0  0  0  0  0
    2.7249   -1.8417    3.9237 H   0  0  0  0  0  0  0  0  0  0  0  0
    2.1576   -3.2079    2.9431 H   0  0  0  0  0  0  0  0  0  0  0  0
    1.9560   -1.7125    0.9758 H   0  0  0  0  0  0  0  0  0  0  0  0
    5.6714   -3.9666   -0.8431 H   0  0  0  0  0  0  0  0  0  0  0  0
    7.6549   -3.1731    0.4175 H   0  0  0  0  0  0  0  0  0  0  0  0
    0.1150   -0.1577    1.1470 H   0  0  0  0  0  0  0  0  0  0  0  0
    0.7422    2.7602   -1.9611 H   0  0  0  0  0  0  0  0  0  0  0  0
    4.7061    0.9669    0.4840 H   0  0  0  0  0  0  0  0  0  0  0  0
    4.2161    2.0535    1.5868 H   0  0  0  0  0  0  0  0  0  0  0  0
   -2.0869   -0.6242    0.2548 H   0  0  0  0  0  0  0  0  0  0  0  0
   -1.5800    2.7882   -2.3419 H   0  0  0  0  0  0  0  0  0  0  0  0
   -3.8712    2.9481   -3.0264 H   0  0  0  0  0  0  0  0  0  0  0  0
   -5.2775    2.4496   -0.7612 H   0  0  0  0  0  0  0  0  0  0  0  0
   -5.9388    3.2481   -2.1759 H   0  0  0  0  0  0  0  0  0  0  0  0
   -6.1670    0.2521   -1.6080 H   0  0  0  0  0  0  0  0  0  0  0  0
   -7.4356    1.4394   -1.3778 H   0  0  0  0  0  0  0  0  0  0  0  0
   -7.8076    1.5815   -3.5741 H   0  0  0  0  0  0  0  0  0  0  0  0
   -6.1183    0.6829   -5.2491 H   0  0  0  0  0  0  0  0  0  0  0  0
   -6.0316    2.3525   -4.6987 H   0  0  0  0  0  0  0  0  0  0  0  0
   -4.4227    0.0126   -3.5671 H   0  0  0  0  0  0  0  0  0  0  0  0
   -3.7965    1.2575   -4.6312 H   0  0  0  0  0  0  0  0  0  0  0  0
  1  2  1  0
  2  3  1  0
  3  4  2  0
  4  5  1  0
  5  6  2  0
  6  7  1  0
  7  8  2  0
  8  9  1  0
  7 10  1  0
  4 11  1  0
  2 12  1  0
 12 13  1  0
 13 14  2  0
 14 15  1  0
 15 16  2  0
 16 17  1  0
 17 18  2  0
 18 19  1  0
 15 20  1  0
 20 21  1  0
 21 22  2  0
 22 23  1  0
 23 24  1  0
 23 25  1  0
 25 26  1  0
 26 27  1  0
 27 28  1  0
 28 29  1  0
 29 30  1  0
  8  3  1  0
 18 13  1  0
 24 20  2  0
 30 25  1  0
  1 31  1  0
  1 32  1  0
  1 33  1  0
  2 34  1  6
  5 35  1  0
  6 36  1  0
 14 37  1  0
 16 38  1  0
 19 39  1  0
 19 40  1  0
 21 41  1  0
 24 42  1  0
 25 43  1  0
 26 44  1  0
 26 45  1  0
 27 46  1  0
 27 47  1  0
 28 48  1  0
 29 49  1  0
 29 50  1  0
 30 51  1  0
 30 52  1  0
M  END
>  <energy_abs>  (160) 
39.75042771263896

>  <SMILES>  (160) 
C[C@H](c1c(ccc(c1Cl)F)Cl)Oc2cc(cnc2N)c3cnn(c3)C4CCNCC4

>  <cluster_no>  (160) 
160

>  <fda_drugs_id>  (160) 
KTEIFNKAUNYNJU-GFCCVEGCSA-N

>  <initial_conformation_id>  (160) 
133

>  <minimize_method>  (160) 
MMFF

$$$$

     RDKit          3D

 52 55  0  0  0  0  0  0  0  0999 V2000
    2.3318   -1.5515    2.7789 C   0  0  0  0  0  0  0  0  0  0  0  0
    2.9135   -1.3224    1.3787 C   0  0  2  0  0  0  0  0  0  0  0  0
    4.2702   -2.0156    1.2345 C   0  0  0  0  0  0  0  0  0  0  0  0
    4.3715   -3.2538    0.5522 C   0  0  0  0  0  0  0  0  0  0  0  0
    5.6053   -3.8984    0.3771 C   0  0  0  0  0  0  0  0  0  0  0  0
    6.7652   -3.3417    0.9023 C   0  0  0  0  0  0  0  0  0  0  0  0
    6.6880   -2.1452    1.6011 C   0  0  0  0  0  0  0  0  0  0  0  0
    5.4654   -1.4796    1.7730 C   0  0  0  0  0  0  0  0  0  0  0  0
    5.5171    0.0003    2.6811 Cl  0  0  0  0  0  0  0  0  0  0  0  0
    7.8200   -1.6449    2.1248 F   0  0  0  0  0  0  0  0  0  0  0  0
    2.9915   -4.0878   -0.0798 Cl  0  0  0  0  0  0  0  0  0  0  0  0
    3.0795    0.0792    1.1184 O   0  0  0  0  0  0  0  0  0  0  0  0
    2.0562    0.8213    0.5965 C   0  0  0  0  0  0  0  0  0  0  0  0
    0.7458    0.3967    0.3810 C   0  0  0  0  0  0  0  0  0  0  0  0
   -0.1925    1.2762   -0.1695 C   0  0  0  0  0  0  0  0  0  0  0  0
    0.2446    2.5621   -0.4653 C   0  0  0  0  0  0  0  0  0  0  0  0
    1.5075    3.0084   -0.2697 N   0  0  0  0  0  0  0  0  0  0  0  0
    2.3892    2.1478    0.2666 C   0  0  0  0  0  0  0  0  0  0  0  0
    3.7062    2.6164    0.4681 N   0  0  0  0  0  0  0  0  0  0  0  0
   -1.5606    0.8577   -0.4203 C   0  0  0  0  0  0  0  0  0  0  0  0
   -2.3657   -0.1210    0.2131 C   0  0  0  0  0  0  0  0  0  0  0  0
   -3.5864   -0.2104   -0.3201 N   0  0  0  0  0  0  0  0  0  0  0  0
   -3.5778    0.7143   -1.3028 N   0  0  0  0  0  0  0  0  0  0  0  0
   -2.3904    1.3877   -1.3906 C   0  0  0  0  0  0  0  0  0  0  0  0
   -4.7750    0.9049   -2.1173 C   0  0  0  0  0  0  0  0  0  0  0  0
   -5.3259    2.3339   -2.0001 C   0  0  0  0  0  0  0  0  0  0  0  0
   -6.3765    2.5730   -3.0786 C   0  0  0  0  0  0  0  0  0  0  0  0
   -5.8632    2.4066   -4.4422 N   0  0  0  0  0  0  0  0  0  0  0  0
   -4.6100    1.6507   -4.5311 C   0  0  0  0  0  0  0  0  0  0  0  0
   -4.5599    0.4678   -3.5710 C   0  0  0  0  0  0  0  0  0  0  0  0
    3.0040   -1.1940    3.5691 H   0  0  0  0  0  0  0  0  0  0  0  0
    1.4031   -0.9971    2.9072 H   0  0  0  0  0  0  0  0  0  0  0  0
    2.1396   -2.6168    2.9634 H   0  0  0  0  0  0  0  0  0  0  0  0
    2.2317   -1.7295    0.6262 H   0  0  0  0  0  0  0  0  0  0  0  0
    5.6646   -4.8392   -0.1716 H   0  0  0  0  0  0  0  0  0  0  0  0
    7.7267   -3.8333    0.7787 H   0  0  0  0  0  0  0  0  0  0  0  0
    0.4407   -0.6046    0.6226 H   0  0  0  0  0  0  0  0  0  0  0  0
   -0.4256    3.3097   -0.8803 H   0  0  0  0  0  0  0  0  0  0  0  0
    3.9554    2.3990    1.4392 H   0  0  0  0  0  0  0  0  0  0  0  0
    4.3304    2.0563   -0.1078 H   0  0  0  0  0  0  0  0  0  0  0  0
   -2.1216   -0.7614    1.0521 H   0  0  0  0  0  0  0  0  0  0  0  0
   -2.2392    2.1558   -2.1324 H   0  0  0  0  0  0  0  0  0  0  0  0
   -5.5266    0.2229   -1.6905 H   0  0  0  0  0  0  0  0  0  0  0  0
   -4.5288    3.0874   -2.0968 H   0  0  0  0  0  0  0  0  0  0  0  0
   -5.7678    2.4825   -1.0044 H   0  0  0  0  0  0  0  0  0  0  0  0
   -6.7964    3.5811   -2.9692 H   0  0  0  0  0  0  0  0  0  0  0  0
   -7.2126    1.8740   -2.9208 H   0  0  0  0  0  0  0  0  0  0  0  0
   -6.5932    1.9651   -5.0220 H   0  0  0  0  0  0  0  0  0  0  0  0
   -3.7643    2.3303   -4.3497 H   0  0  0  0  0  0  0  0  0  0  0  0
   -4.4915    1.2881   -5.5579 H   0  0  0  0  0  0  0  0  0  0  0  0
   -5.3557   -0.2427   -3.8508 H   0  0  0  0  0  0  0  0  0  0  0  0
   -3.6101   -0.0778   -3.6963 H   0  0  0  0  0  0  0  0  0  0  0  0
  1  2  1  0
  2  3  1  0
  3  4  2  0
  4  5  1  0
  5  6  2  0
  6  7  1  0
  7  8  2  0
  8  9  1  0
  7 10  1  0
  4 11  1  0
  2 12  1  0
 12 13  1  0
 13 14  2  0
 14 15  1  0
 15 16  2  0
 16 17  1  0
 17 18  2  0
 18 19  1  0
 15 20  1  0
 20 21  1  0
 21 22  2  0
 22 23  1  0
 23 24  1  0
 23 25  1  0
 25 26  1  0
 26 27  1  0
 27 28  1  0
 28 29  1  0
 29 30  1  0
  8  3  1  0
 18 13  1  0
 24 20  2  0
 30 25  1  0
  1 31  1  0
  1 32  1  0
  1 33  1  0
  2 34  1  6
  5 35  1  0
  6 36  1  0
 14 37  1  0
 16 38  1  0
 19 39  1  0
 19 40  1  0
 21 41  1  0
 24 42  1  0
 25 43  1  0
 26 44  1  0
 26 45  1  0
 27 46  1  0
 27 47  1  0
 28 48  1  0
 29 49  1  0
 29 50  1  0
 30 51  1  0
 30 52  1  0
M  END
>  <energy_abs>  (161) 
40.77356764978677

>  <SMILES>  (161) 
C[C@H](c1c(ccc(c1Cl)F)Cl)Oc2cc(cnc2N)c3cnn(c3)C4CCNCC4

>  <cluster_no>  (161) 
161

>  <fda_drugs_id>  (161) 
KTEIFNKAUNYNJU-GFCCVEGCSA-N

>  <initial_conformation_id>  (161) 
132

>  <minimize_method>  (161) 
MMFF

$$$$

     RDKit          3D

 52 55  0  0  0  0  0  0  0  0999 V2000
    2.2309   -2.1215    3.2712 C   0  0  0  0  0  0  0  0  0  0  0  0
    2.5304   -1.4074    1.9506 C   0  0  2  0  0  0  0  0  0  0  0  0
    3.8673   -1.8403    1.3567 C   0  0  0  0  0  0  0  0  0  0  0  0
    3.9062   -2.6702    0.2111 C   0  0  0  0  0  0  0  0  0  0  0  0
    5.1207   -3.0818   -0.3568 C   0  0  0  0  0  0  0  0  0  0  0  0
    6.3276   -2.6848    0.2039 C   0  0  0  0  0  0  0  0  0  0  0  0
    6.3146   -1.8787    1.3317 C   0  0  0  0  0  0  0  0  0  0  0  0
    5.1096   -1.4561    1.9112 C   0  0  0  0  0  0  0  0  0  0  0  0
    5.2408   -0.4454    3.3128 Cl  0  0  0  0  0  0  0  0  0  0  0  0
    7.4921   -1.5102    1.8592 F   0  0  0  0  0  0  0  0  0  0  0  0
    2.4752   -3.2522   -0.5730 Cl  0  0  0  0  0  0  0  0  0  0  0  0
    2.4918    0.0147    2.1823 O   0  0  0  0  0  0  0  0  0  0  0  0
    1.9727    0.7407    1.1392 C   0  0  0  0  0  0  0  0  0  0  0  0
    0.6646    0.5494    0.6897 C   0  0  0  0  0  0  0  0  0  0  0  0
    0.1729    1.3306   -0.3576 C   0  0  0  0  0  0  0  0  0  0  0  0
    1.0318    2.2920   -0.8821 C   0  0  0  0  0  0  0  0  0  0  0  0
    2.2921    2.5238   -0.4392 N   0  0  0  0  0  0  0  0  0  0  0  0
    2.7435    1.7661    0.5744 C   0  0  0  0  0  0  0  0  0  0  0  0
    4.0313    2.0450    1.0595 N   0  0  0  0  0  0  0  0  0  0  0  0
   -1.1775    1.1495   -0.8538 C   0  0  0  0  0  0  0  0  0  0  0  0
   -2.3421    0.6746   -0.2084 C   0  0  0  0  0  0  0  0  0  0  0  0
   -3.4045    0.6393   -1.0156 N   0  0  0  0  0  0  0  0  0  0  0  0
   -2.9280    1.0927   -2.1931 N   0  0  0  0  0  0  0  0  0  0  0  0
   -1.5964    1.4095   -2.1426 C   0  0  0  0  0  0  0  0  0  0  0  0
   -3.7988    1.2141   -3.3642 C   0  0  0  0  0  0  0  0  0  0  0  0
   -4.6524    2.4843   -3.2975 C   0  0  0  0  0  0  0  0  0  0  0  0
   -5.7717    2.3830   -2.2563 C   0  0  0  0  0  0  0  0  0  0  0  0
   -6.2575    1.0201   -2.0187 N   0  0  0  0  0  0  0  0  0  0  0  0
   -6.1332    0.1875   -3.2099 C   0  0  0  0  0  0  0  0  0  0  0  0
   -4.6690   -0.0356   -3.5958 C   0  0  0  0  0  0  0  0  0  0  0  0
    2.2581   -3.2091    3.1501 H   0  0  0  0  0  0  0  0  0  0  0  0
    1.2351   -1.8375    3.6306 H   0  0  0  0  0  0  0  0  0  0  0  0
    2.9293   -1.8475    4.0664 H   0  0  0  0  0  0  0  0  0  0  0  0
    1.7100   -1.6878    1.2867 H   0  0  0  0  0  0  0  0  0  0  0  0
    5.1281   -3.7175   -1.2403 H   0  0  0  0  0  0  0  0  0  0  0  0
    7.2748   -2.9973   -0.2262 H   0  0  0  0  0  0  0  0  0  0  0  0
    0.0348   -0.1991    1.1599 H   0  0  0  0  0  0  0  0  0  0  0  0
    0.7253    2.9504   -1.6903 H   0  0  0  0  0  0  0  0  0  0  0  0
    4.5971    1.2067    0.9851 H   0  0  0  0  0  0  0  0  0  0  0  0
    3.9515    2.2354    2.0564 H   0  0  0  0  0  0  0  0  0  0  0  0
   -2.4634    0.3576    0.8197 H   0  0  0  0  0  0  0  0  0  0  0  0
   -1.0760    1.7757   -3.0172 H   0  0  0  0  0  0  0  0  0  0  0  0
   -3.1116    1.3030   -4.2164 H   0  0  0  0  0  0  0  0  0  0  0  0
   -4.0330    3.3644   -3.0868 H   0  0  0  0  0  0  0  0  0  0  0  0
   -5.1041    2.6488   -4.2851 H   0  0  0  0  0  0  0  0  0  0  0  0
   -5.4288    2.7991   -1.3013 H   0  0  0  0  0  0  0  0  0  0  0  0
   -6.6114    3.0132   -2.5730 H   0  0  0  0  0  0  0  0  0  0  0  0
   -5.6535    0.6129   -1.2890 H   0  0  0  0  0  0  0  0  0  0  0  0
   -6.6858    0.6413   -4.0425 H   0  0  0  0  0  0  0  0  0  0  0  0
   -6.6080   -0.7826   -3.0247 H   0  0  0  0  0  0  0  0  0  0  0  0
   -4.2653   -0.9034   -3.0588 H   0  0  0  0  0  0  0  0  0  0  0  0
   -4.6410   -0.2988   -4.6613 H   0  0  0  0  0  0  0  0  0  0  0  0
  1  2  1  0
  2  3  1  0
  3  4  2  0
  4  5  1  0
  5  6  2  0
  6  7  1  0
  7  8  2  0
  8  9  1  0
  7 10  1  0
  4 11  1  0
  2 12  1  0
 12 13  1  0
 13 14  2  0
 14 15  1  0
 15 16  2  0
 16 17  1  0
 17 18  2  0
 18 19  1  0
 15 20  1  0
 20 21  1  0
 21 22  2  0
 22 23  1  0
 23 24  1  0
 23 25  1  0
 25 26  1  0
 26 27  1  0
 27 28  1  0
 28 29  1  0
 29 30  1  0
  8  3  1  0
 18 13  1  0
 24 20  2  0
 30 25  1  0
  1 31  1  0
  1 32  1  0
  1 33  1  0
  2 34  1  6
  5 35  1  0
  6 36  1  0
 14 37  1  0
 16 38  1  0
 19 39  1  0
 19 40  1  0
 21 41  1  0
 24 42  1  0
 25 43  1  0
 26 44  1  0
 26 45  1  0
 27 46  1  0
 27 47  1  0
 28 48  1  0
 29 49  1  0
 29 50  1  0
 30 51  1  0
 30 52  1  0
M  END
>  <energy_abs>  (162) 
39.307403693113436

>  <SMILES>  (162) 
C[C@H](c1c(ccc(c1Cl)F)Cl)Oc2cc(cnc2N)c3cnn(c3)C4CCNCC4

>  <cluster_no>  (162) 
162

>  <fda_drugs_id>  (162) 
KTEIFNKAUNYNJU-GFCCVEGCSA-N

>  <initial_conformation_id>  (162) 
131

>  <minimize_method>  (162) 
MMFF

$$$$

     RDKit          3D

 52 55  0  0  0  0  0  0  0  0999 V2000
    2.0681   -2.4858    1.8676 C   0  0  0  0  0  0  0  0  0  0  0  0
    3.0164   -1.6073    1.0480 C   0  0  2  0  0  0  0  0  0  0  0  0
    4.4759   -1.8696    1.4108 C   0  0  0  0  0  0  0  0  0  0  0  0
    5.3085   -2.6123    0.5399 C   0  0  0  0  0  0  0  0  0  0  0  0
    6.6549   -2.8614    0.8439 C   0  0  0  0  0  0  0  0  0  0  0  0
    7.2063   -2.3852    2.0265 C   0  0  0  0  0  0  0  0  0  0  0  0
    6.4062   -1.6696    2.9048 C   0  0  0  0  0  0  0  0  0  0  0  0
    5.0580   -1.4110    2.6168 C   0  0  0  0  0  0  0  0  0  0  0  0
    4.1724   -0.5222    3.8123 Cl  0  0  0  0  0  0  0  0  0  0  0  0
    6.9586   -1.2297    4.0459 F   0  0  0  0  0  0  0  0  0  0  0  0
    4.7401   -3.2746   -0.9554 Cl  0  0  0  0  0  0  0  0  0  0  0  0
    2.7057   -0.2166    1.2627 O   0  0  0  0  0  0  0  0  0  0  0  0
    2.1088    0.3563    0.1699 C   0  0  0  0  0  0  0  0  0  0  0  0
    0.7170    0.3716    0.0918 C   0  0  0  0  0  0  0  0  0  0  0  0
    0.0974    0.9763   -1.0022 C   0  0  0  0  0  0  0  0  0  0  0  0
    0.9361    1.5431   -1.9599 C   0  0  0  0  0  0  0  0  0  0  0  0
    2.2923    1.5628   -1.8910 N   0  0  0  0  0  0  0  0  0  0  0  0
    2.8668    0.9920   -0.8207 C   0  0  0  0  0  0  0  0  0  0  0  0
    4.2670    1.0373   -0.7383 N   0  0  0  0  0  0  0  0  0  0  0  0
   -1.3491    0.9989   -1.1245 C   0  0  0  0  0  0  0  0  0  0  0  0
   -2.3401    0.1909   -0.5188 C   0  0  0  0  0  0  0  0  0  0  0  0
   -3.5797    0.5325   -0.8766 N   0  0  0  0  0  0  0  0  0  0  0  0
   -3.3954    1.5658   -1.7185 N   0  0  0  0  0  0  0  0  0  0  0  0
   -2.0757    1.8844   -1.8952 C   0  0  0  0  0  0  0  0  0  0  0  0
   -4.5380    2.2281   -2.3425 C   0  0  0  0  0  0  0  0  0  0  0  0
   -5.6088    2.6504   -1.3221 C   0  0  0  0  0  0  0  0  0  0  0  0
   -6.7787    1.6738   -1.3176 C   0  0  0  0  0  0  0  0  0  0  0  0
   -7.4377    1.5718   -2.6206 N   0  0  0  0  0  0  0  0  0  0  0  0
   -6.5549    1.7701   -3.7684 C   0  0  0  0  0  0  0  0  0  0  0  0
   -5.1134    1.3718   -3.4800 C   0  0  0  0  0  0  0  0  0  0  0  0
    1.0351   -2.3501    1.5298 H   0  0  0  0  0  0  0  0  0  0  0  0
    2.0759   -2.2291    2.9308 H   0  0  0  0  0  0  0  0  0  0  0  0
    2.3223   -3.5465    1.7687 H   0  0  0  0  0  0  0  0  0  0  0  0
    2.8405   -1.8523   -0.0051 H   0  0  0  0  0  0  0  0  0  0  0  0
    7.2798   -3.4309    0.1574 H   0  0  0  0  0  0  0  0  0  0  0  0
    8.2467   -2.5732    2.2742 H   0  0  0  0  0  0  0  0  0  0  0  0
    0.1364   -0.0723    0.8939 H   0  0  0  0  0  0  0  0  0  0  0  0
    0.5414    2.0175   -2.8542 H   0  0  0  0  0  0  0  0  0  0  0  0
    4.6323    0.0925   -0.7685 H   0  0  0  0  0  0  0  0  0  0  0  0
    4.5134    1.4304    0.1677 H   0  0  0  0  0  0  0  0  0  0  0  0
   -2.2128   -0.6367    0.1664 H   0  0  0  0  0  0  0  0  0  0  0  0
   -1.7822    2.7037   -2.5365 H   0  0  0  0  0  0  0  0  0  0  0  0
   -4.1333    3.1521   -2.7782 H   0  0  0  0  0  0  0  0  0  0  0  0
   -5.1915    2.7492   -0.3134 H   0  0  0  0  0  0  0  0  0  0  0  0
   -5.9862    3.6461   -1.5929 H   0  0  0  0  0  0  0  0  0  0  0  0
   -7.5177    1.9854   -0.5708 H   0  0  0  0  0  0  0  0  0  0  0  0
   -6.4391    0.6772   -1.0134 H   0  0  0  0  0  0  0  0  0  0  0  0
   -8.2273    2.2145   -2.6748 H   0  0  0  0  0  0  0  0  0  0  0  0
   -6.5857    2.8237   -4.0722 H   0  0  0  0  0  0  0  0  0  0  0  0
   -6.9397    1.1860   -4.6108 H   0  0  0  0  0  0  0  0  0  0  0  0
   -4.5010    1.4974   -4.3814 H   0  0  0  0  0  0  0  0  0  0  0  0
   -5.0746    0.3020   -3.2330 H   0  0  0  0  0  0  0  0  0  0  0  0
  1  2  1  0
  2  3  1  0
  3  4  2  0
  4  5  1  0
  5  6  2  0
  6  7  1  0
  7  8  2  0
  8  9  1  0
  7 10  1  0
  4 11  1  0
  2 12  1  0
 12 13  1  0
 13 14  2  0
 14 15  1  0
 15 16  2  0
 16 17  1  0
 17 18  2  0
 18 19  1  0
 15 20  1  0
 20 21  1  0
 21 22  2  0
 22 23  1  0
 23 24  1  0
 23 25  1  0
 25 26  1  0
 26 27  1  0
 27 28  1  0
 28 29  1  0
 29 30  1  0
  8  3  1  0
 18 13  1  0
 24 20  2  0
 30 25  1  0
  1 31  1  0
  1 32  1  0
  1 33  1  0
  2 34  1  6
  5 35  1  0
  6 36  1  0
 14 37  1  0
 16 38  1  0
 19 39  1  0
 19 40  1  0
 21 41  1  0
 24 42  1  0
 25 43  1  0
 26 44  1  0
 26 45  1  0
 27 46  1  0
 27 47  1  0
 28 48  1  0
 29 49  1  0
 29 50  1  0
 30 51  1  0
 30 52  1  0
M  END
>  <energy_abs>  (163) 
40.55557987055007

>  <SMILES>  (163) 
C[C@H](c1c(ccc(c1Cl)F)Cl)Oc2cc(cnc2N)c3cnn(c3)C4CCNCC4

>  <cluster_no>  (163) 
163

>  <fda_drugs_id>  (163) 
KTEIFNKAUNYNJU-GFCCVEGCSA-N

>  <initial_conformation_id>  (163) 
130

>  <minimize_method>  (163) 
MMFF

$$$$

     RDKit          3D

 52 55  0  0  0  0  0  0  0  0999 V2000
    2.1484   -2.3518    2.1860 C   0  0  0  0  0  0  0  0  0  0  0  0
    2.9557   -1.5604    1.1538 C   0  0  2  0  0  0  0  0  0  0  0  0
    4.4573   -1.7489    1.3542 C   0  0  0  0  0  0  0  0  0  0  0  0
    5.1996   -2.5711    0.4734 C   0  0  0  0  0  0  0  0  0  0  0  0
    6.5803   -2.7596    0.6314 C   0  0  0  0  0  0  0  0  0  0  0  0
    7.2569   -2.1432    1.6758 C   0  0  0  0  0  0  0  0  0  0  0  0
    6.5489   -1.3446    2.5613 C   0  0  0  0  0  0  0  0  0  0  0  0
    5.1684   -1.1432    2.4175 C   0  0  0  0  0  0  0  0  0  0  0  0
    4.4099   -0.1366    3.6067 Cl  0  0  0  0  0  0  0  0  0  0  0  0
    7.2230   -0.7690    3.5685 F   0  0  0  0  0  0  0  0  0  0  0  0
    4.4745   -3.4097   -0.8566 Cl  0  0  0  0  0  0  0  0  0  0  0  0
    2.6276   -0.1598    1.2396 O   0  0  0  0  0  0  0  0  0  0  0  0
    1.8455    0.2543    0.1927 C   0  0  0  0  0  0  0  0  0  0  0  0
    0.4599    0.2508    0.3443 C   0  0  0  0  0  0  0  0  0  0  0  0
   -0.3473    0.6959   -0.7032 C   0  0  0  0  0  0  0  0  0  0  0  0
    0.3081    1.1332   -1.8528 C   0  0  0  0  0  0  0  0  0  0  0  0
    1.6570    1.1691   -2.0124 N   0  0  0  0  0  0  0  0  0  0  0  0
    2.4139    0.7542   -0.9849 C   0  0  0  0  0  0  0  0  0  0  0  0
    3.8072    0.8143   -1.1429 N   0  0  0  0  0  0  0  0  0  0  0  0
   -1.7948    0.6901   -0.5868 C   0  0  0  0  0  0  0  0  0  0  0  0
   -2.6488    0.0031    0.3065 C   0  0  0  0  0  0  0  0  0  0  0  0
   -3.9410    0.2608    0.0952 N   0  0  0  0  0  0  0  0  0  0  0  0
   -3.9306    1.1341   -0.9332 N   0  0  0  0  0  0  0  0  0  0  0  0
   -2.6659    1.4119   -1.3765 C   0  0  0  0  0  0  0  0  0  0  0  0
   -5.2066    1.6318   -1.4468 C   0  0  0  0  0  0  0  0  0  0  0  0
   -5.6907    0.7983   -2.6372 C   0  0  0  0  0  0  0  0  0  0  0  0
   -4.9337    1.1290   -3.9246 C   0  0  0  0  0  0  0  0  0  0  0  0
   -4.5290    2.5308   -4.0406 N   0  0  0  0  0  0  0  0  0  0  0  0
   -5.3617    3.4292   -3.2566 C   0  0  0  0  0  0  0  0  0  0  0  0
   -5.2074    3.1395   -1.7633 C   0  0  0  0  0  0  0  0  0  0  0  0
    1.0779   -2.2851    1.9639 H   0  0  0  0  0  0  0  0  0  0  0  0
    2.2725   -1.9623    3.2004 H   0  0  0  0  0  0  0  0  0  0  0  0
    2.4307   -3.4101    2.1856 H   0  0  0  0  0  0  0  0  0  0  0  0
    2.6581   -1.9357    0.1691 H   0  0  0  0  0  0  0  0  0  0  0  0
    7.1337   -3.3928   -0.0604 H   0  0  0  0  0  0  0  0  0  0  0  0
    8.3253   -2.2824    1.8099 H   0  0  0  0  0  0  0  0  0  0  0  0
    0.0312   -0.0834    1.2836 H   0  0  0  0  0  0  0  0  0  0  0  0
   -0.2402    1.4816   -2.7241 H   0  0  0  0  0  0  0  0  0  0  0  0
    4.1893    1.3137   -0.3431 H   0  0  0  0  0  0  0  0  0  0  0  0
    4.1843   -0.1258   -1.1241 H   0  0  0  0  0  0  0  0  0  0  0  0
   -2.3858   -0.6826    1.1012 H   0  0  0  0  0  0  0  0  0  0  0  0
   -2.5042    2.0958   -2.1985 H   0  0  0  0  0  0  0  0  0  0  0  0
   -5.9143    1.4785   -0.6193 H   0  0  0  0  0  0  0  0  0  0  0  0
   -6.7580    1.0054   -2.7931 H   0  0  0  0  0  0  0  0  0  0  0  0
   -5.6112   -0.2756   -2.4284 H   0  0  0  0  0  0  0  0  0  0  0  0
   -4.0332    0.5090   -3.9963 H   0  0  0  0  0  0  0  0  0  0  0  0
   -5.5649    0.8575   -4.7795 H   0  0  0  0  0  0  0  0  0  0  0  0
   -4.5298    2.8076   -5.0232 H   0  0  0  0  0  0  0  0  0  0  0  0
   -5.0628    4.4658   -3.4495 H   0  0  0  0  0  0  0  0  0  0  0  0
   -6.4116    3.3461   -3.5638 H   0  0  0  0  0  0  0  0  0  0  0  0
   -6.0501    3.6126   -1.2426 H   0  0  0  0  0  0  0  0  0  0  0  0
   -4.3058    3.6306   -1.3769 H   0  0  0  0  0  0  0  0  0  0  0  0
  1  2  1  0
  2  3  1  0
  3  4  2  0
  4  5  1  0
  5  6  2  0
  6  7  1  0
  7  8  2  0
  8  9  1  0
  7 10  1  0
  4 11  1  0
  2 12  1  0
 12 13  1  0
 13 14  2  0
 14 15  1  0
 15 16  2  0
 16 17  1  0
 17 18  2  0
 18 19  1  0
 15 20  1  0
 20 21  1  0
 21 22  2  0
 22 23  1  0
 23 24  1  0
 23 25  1  0
 25 26  1  0
 26 27  1  0
 27 28  1  0
 28 29  1  0
 29 30  1  0
  8  3  1  0
 18 13  1  0
 24 20  2  0
 30 25  1  0
  1 31  1  0
  1 32  1  0
  1 33  1  0
  2 34  1  6
  5 35  1  0
  6 36  1  0
 14 37  1  0
 16 38  1  0
 19 39  1  0
 19 40  1  0
 21 41  1  0
 24 42  1  0
 25 43  1  0
 26 44  1  0
 26 45  1  0
 27 46  1  0
 27 47  1  0
 28 48  1  0
 29 49  1  0
 29 50  1  0
 30 51  1  0
 30 52  1  0
M  END
>  <energy_abs>  (164) 
39.547010454538416

>  <SMILES>  (164) 
C[C@H](c1c(ccc(c1Cl)F)Cl)Oc2cc(cnc2N)c3cnn(c3)C4CCNCC4

>  <cluster_no>  (164) 
164

>  <fda_drugs_id>  (164) 
KTEIFNKAUNYNJU-GFCCVEGCSA-N

>  <initial_conformation_id>  (164) 
129

>  <minimize_method>  (164) 
MMFF

$$$$

     RDKit          3D

 52 55  0  0  0  0  0  0  0  0999 V2000
    3.5108   -2.0963   -0.9991 C   0  0  0  0  0  0  0  0  0  0  0  0
    3.7058   -1.2071    0.2358 C   0  0  2  0  0  0  0  0  0  0  0  0
    4.8039   -1.7627    1.1398 C   0  0  0  0  0  0  0  0  0  0  0  0
    4.6070   -2.8908    1.9738 C   0  0  0  0  0  0  0  0  0  0  0  0
    5.6357   -3.3838    2.7933 C   0  0  0  0  0  0  0  0  0  0  0  0
    6.8854   -2.7756    2.7991 C   0  0  0  0  0  0  0  0  0  0  0  0
    7.1061   -1.6789    1.9779 C   0  0  0  0  0  0  0  0  0  0  0  0
    6.0921   -1.1734    1.1513 C   0  0  0  0  0  0  0  0  0  0  0  0
    6.5123    0.1745    0.1431 Cl  0  0  0  0  0  0  0  0  0  0  0  0
    8.3238   -1.1160    1.9910 F   0  0  0  0  0  0  0  0  0  0  0  0
    3.1190   -3.7766    2.0495 Cl  0  0  0  0  0  0  0  0  0  0  0  0
    2.4671   -1.1185    0.9686 O   0  0  0  0  0  0  0  0  0  0  0  0
    1.7508    0.0106    0.6721 C   0  0  0  0  0  0  0  0  0  0  0  0
    0.5491   -0.1468   -0.0163 C   0  0  0  0  0  0  0  0  0  0  0  0
   -0.2268    0.9736   -0.3204 C   0  0  0  0  0  0  0  0  0  0  0  0
    0.2661    2.2052    0.1111 C   0  0  0  0  0  0  0  0  0  0  0  0
    1.4169    2.3829    0.8123 N   0  0  0  0  0  0  0  0  0  0  0  0
    2.1313    1.2838    1.1030 C   0  0  0  0  0  0  0  0  0  0  0  0
    3.2935    1.4875    1.8492 N   0  0  0  0  0  0  0  0  0  0  0  0
   -1.4787    0.8433   -1.0494 C   0  0  0  0  0  0  0  0  0  0  0  0
   -2.0342   -0.2606   -1.7395 C   0  0  0  0  0  0  0  0  0  0  0  0
   -3.2266    0.0058   -2.2790 N   0  0  0  0  0  0  0  0  0  0  0  0
   -3.4497    1.2871   -1.9364 N   0  0  0  0  0  0  0  0  0  0  0  0
   -2.4315    1.8309   -1.2034 C   0  0  0  0  0  0  0  0  0  0  0  0
   -4.6813    1.9558   -2.3374 C   0  0  0  0  0  0  0  0  0  0  0  0
   -5.9154    1.3049   -1.7025 C   0  0  0  0  0  0  0  0  0  0  0  0
   -7.1856    2.0096   -2.1678 C   0  0  0  0  0  0  0  0  0  0  0  0
   -7.2928    2.0373   -3.6274 N   0  0  0  0  0  0  0  0  0  0  0  0
   -6.1416    2.7013   -4.2409 C   0  0  0  0  0  0  0  0  0  0  0  0
   -4.8276    2.0259   -3.8625 C   0  0  0  0  0  0  0  0  0  0  0  0
    4.4508   -2.2112   -1.5516 H   0  0  0  0  0  0  0  0  0  0  0  0
    3.1367   -3.0958   -0.7454 H   0  0  0  0  0  0  0  0  0  0  0  0
    2.7669   -1.6537   -1.6732 H   0  0  0  0  0  0  0  0  0  0  0  0
    3.9837   -0.2158   -0.1356 H   0  0  0  0  0  0  0  0  0  0  0  0
    5.4638   -4.2528    3.4280 H   0  0  0  0  0  0  0  0  0  0  0  0
    7.6879   -3.1526    3.4272 H   0  0  0  0  0  0  0  0  0  0  0  0
    0.2395   -1.1478   -0.3013 H   0  0  0  0  0  0  0  0  0  0  0  0
   -0.2601    3.1331   -0.0954 H   0  0  0  0  0  0  0  0  0  0  0  0
    3.3012    0.8786    2.6595 H   0  0  0  0  0  0  0  0  0  0  0  0
    3.3151    2.4695    2.1049 H   0  0  0  0  0  0  0  0  0  0  0  0
   -1.6201   -1.2508   -1.8740 H   0  0  0  0  0  0  0  0  0  0  0  0
   -2.4865    2.8523   -0.8559 H   0  0  0  0  0  0  0  0  0  0  0  0
   -4.6032    2.9843   -1.9562 H   0  0  0  0  0  0  0  0  0  0  0  0
   -5.8460    1.3497   -0.6078 H   0  0  0  0  0  0  0  0  0  0  0  0
   -5.9708    0.2403   -1.9690 H   0  0  0  0  0  0  0  0  0  0  0  0
   -8.0601    1.4912   -1.7589 H   0  0  0  0  0  0  0  0  0  0  0  0
   -7.2182    3.0338   -1.7758 H   0  0  0  0  0  0  0  0  0  0  0  0
   -7.3505    1.0775   -3.9756 H   0  0  0  0  0  0  0  0  0  0  0  0
   -6.2616    2.6823   -5.3303 H   0  0  0  0  0  0  0  0  0  0  0  0
   -6.1243    3.7587   -3.9482 H   0  0  0  0  0  0  0  0  0  0  0  0
   -3.9875    2.5822   -4.2977 H   0  0  0  0  0  0  0  0  0  0  0  0
   -4.7968    1.0185   -4.3004 H   0  0  0  0  0  0  0  0  0  0  0  0
  1  2  1  0
  2  3  1  0
  3  4  2  0
  4  5  1  0
  5  6  2  0
  6  7  1  0
  7  8  2  0
  8  9  1  0
  7 10  1  0
  4 11  1  0
  2 12  1  0
 12 13  1  0
 13 14  2  0
 14 15  1  0
 15 16  2  0
 16 17  1  0
 17 18  2  0
 18 19  1  0
 15 20  1  0
 20 21  1  0
 21 22  2  0
 22 23  1  0
 23 24  1  0
 23 25  1  0
 25 26  1  0
 26 27  1  0
 27 28  1  0
 28 29  1  0
 29 30  1  0
  8  3  1  0
 18 13  1  0
 24 20  2  0
 30 25  1  0
  1 31  1  0
  1 32  1  0
  1 33  1  0
  2 34  1  6
  5 35  1  0
  6 36  1  0
 14 37  1  0
 16 38  1  0
 19 39  1  0
 19 40  1  0
 21 41  1  0
 24 42  1  0
 25 43  1  0
 26 44  1  0
 26 45  1  0
 27 46  1  0
 27 47  1  0
 28 48  1  0
 29 49  1  0
 29 50  1  0
 30 51  1  0
 30 52  1  0
M  END
>  <energy_abs>  (165) 
23.969268946347288

>  <SMILES>  (165) 
C[C@H](c1c(ccc(c1Cl)F)Cl)Oc2cc(cnc2N)c3cnn(c3)C4CCNCC4

>  <cluster_no>  (165) 
165

>  <fda_drugs_id>  (165) 
KTEIFNKAUNYNJU-GFCCVEGCSA-N

>  <initial_conformation_id>  (165) 
128

>  <minimize_method>  (165) 
MMFF

$$$$

     RDKit          3D

 52 55  0  0  0  0  0  0  0  0999 V2000
    2.0630   -1.7319    2.4742 C   0  0  0  0  0  0  0  0  0  0  0  0
    2.9031   -1.3368    1.2572 C   0  0  2  0  0  0  0  0  0  0  0  0
    4.3207   -1.8952    1.3772 C   0  0  0  0  0  0  0  0  0  0  0  0
    4.6900   -3.0605    0.6627 C   0  0  0  0  0  0  0  0  0  0  0  0
    5.9852   -3.5922    0.7424 C   0  0  0  0  0  0  0  0  0  0  0  0
    6.9436   -2.9867    1.5454 C   0  0  0  0  0  0  0  0  0  0  0  0
    6.5986   -1.8571    2.2744 C   0  0  0  0  0  0  0  0  0  0  0  0
    5.3082   -1.3104    2.2062 C   0  0  0  0  0  0  0  0  0  0  0  0
    5.0068    0.0739    3.2068 Cl  0  0  0  0  0  0  0  0  0  0  0  0
    7.5365   -1.3022    3.0579 F   0  0  0  0  0  0  0  0  0  0  0  0
    3.5765   -3.9376   -0.3364 Cl  0  0  0  0  0  0  0  0  0  0  0  0
    2.9628    0.0857    1.1246 O   0  0  0  0  0  0  0  0  0  0  0  0
    2.0465    0.7476    0.3522 C   0  0  0  0  0  0  0  0  0  0  0  0
    0.8325    0.2281   -0.1003 C   0  0  0  0  0  0  0  0  0  0  0  0
   -0.0321    1.0281   -0.8566 C   0  0  0  0  0  0  0  0  0  0  0  0
    0.3742    2.3349   -1.1161 C   0  0  0  0  0  0  0  0  0  0  0  0
    1.5385    2.8765   -0.6857 N   0  0  0  0  0  0  0  0  0  0  0  0
    2.3500    2.0839    0.0394 C   0  0  0  0  0  0  0  0  0  0  0  0
    3.5715    2.6465    0.4141 N   0  0  0  0  0  0  0  0  0  0  0  0
   -1.2938    0.5028   -1.3441 C   0  0  0  0  0  0  0  0  0  0  0  0
   -1.6810   -0.8170   -1.6712 C   0  0  0  0  0  0  0  0  0  0  0  0
   -2.9521   -0.9001   -2.0716 N   0  0  0  0  0  0  0  0  0  0  0  0
   -3.3946    0.3703   -1.9992 N   0  0  0  0  0  0  0  0  0  0  0  0
   -2.4332    1.2470   -1.5729 C   0  0  0  0  0  0  0  0  0  0  0  0
   -4.7746    0.6666   -2.3727 C   0  0  0  0  0  0  0  0  0  0  0  0
   -5.5754    1.2339   -1.1924 C   0  0  0  0  0  0  0  0  0  0  0  0
   -6.7756    2.0204   -1.7000 C   0  0  0  0  0  0  0  0  0  0  0  0
   -6.3768    3.1793   -2.4954 N   0  0  0  0  0  0  0  0  0  0  0  0
   -5.1674    2.9953   -3.2963 C   0  0  0  0  0  0  0  0  0  0  0  0
   -4.8669    1.5396   -3.6349 C   0  0  0  0  0  0  0  0  0  0  0  0
    1.9881   -2.8217    2.5663 H   0  0  0  0  0  0  0  0  0  0  0  0
    2.4832   -1.3428    3.4069 H   0  0  0  0  0  0  0  0  0  0  0  0
    1.0511   -1.3240    2.4040 H   0  0  0  0  0  0  0  0  0  0  0  0
    2.4435   -1.7450    0.3545 H   0  0  0  0  0  0  0  0  0  0  0  0
    6.2478   -4.4890    0.1842 H   0  0  0  0  0  0  0  0  0  0  0  0
    7.9482   -3.3898    1.6194 H   0  0  0  0  0  0  0  0  0  0  0  0
    0.5311   -0.7845    0.1453 H   0  0  0  0  0  0  0  0  0  0  0  0
   -0.2342    3.0140   -1.7063 H   0  0  0  0  0  0  0  0  0  0  0  0
    3.5447    3.6391    0.2010 H   0  0  0  0  0  0  0  0  0  0  0  0
    3.7907    2.4332    1.3827 H   0  0  0  0  0  0  0  0  0  0  0  0
   -1.0892   -1.7229   -1.6408 H   0  0  0  0  0  0  0  0  0  0  0  0
   -2.6471    2.2998   -1.4524 H   0  0  0  0  0  0  0  0  0  0  0  0
   -5.2161   -0.3060   -2.6348 H   0  0  0  0  0  0  0  0  0  0  0  0
   -5.9097    0.4116   -0.5470 H   0  0  0  0  0  0  0  0  0  0  0  0
   -4.9590    1.8848   -0.5585 H   0  0  0  0  0  0  0  0  0  0  0  0
   -7.4193    1.3653   -2.3001 H   0  0  0  0  0  0  0  0  0  0  0  0
   -7.3771    2.3669   -0.8525 H   0  0  0  0  0  0  0  0  0  0  0  0
   -7.1563    3.4758   -3.0832 H   0  0  0  0  0  0  0  0  0  0  0  0
   -5.2608    3.5748   -4.2220 H   0  0  0  0  0  0  0  0  0  0  0  0
   -4.3228    3.4317   -2.7505 H   0  0  0  0  0  0  0  0  0  0  0  0
   -3.9514    1.4762   -4.2363 H   0  0  0  0  0  0  0  0  0  0  0  0
   -5.6784    1.1581   -4.2694 H   0  0  0  0  0  0  0  0  0  0  0  0
  1  2  1  0
  2  3  1  0
  3  4  2  0
  4  5  1  0
  5  6  2  0
  6  7  1  0
  7  8  2  0
  8  9  1  0
  7 10  1  0
  4 11  1  0
  2 12  1  0
 12 13  1  0
 13 14  2  0
 14 15  1  0
 15 16  2  0
 16 17  1  0
 17 18  2  0
 18 19  1  0
 15 20  1  0
 20 21  1  0
 21 22  2  0
 22 23  1  0
 23 24  1  0
 23 25  1  0
 25 26  1  0
 26 27  1  0
 27 28  1  0
 28 29  1  0
 29 30  1  0
  8  3  1  0
 18 13  1  0
 24 20  2  0
 30 25  1  0
  1 31  1  0
  1 32  1  0
  1 33  1  0
  2 34  1  6
  5 35  1  0
  6 36  1  0
 14 37  1  0
 16 38  1  0
 19 39  1  0
 19 40  1  0
 21 41  1  0
 24 42  1  0
 25 43  1  0
 26 44  1  0
 26 45  1  0
 27 46  1  0
 27 47  1  0
 28 48  1  0
 29 49  1  0
 29 50  1  0
 30 51  1  0
 30 52  1  0
M  END
>  <energy_abs>  (166) 
31.230808809835178

>  <SMILES>  (166) 
C[C@H](c1c(ccc(c1Cl)F)Cl)Oc2cc(cnc2N)c3cnn(c3)C4CCNCC4

>  <cluster_no>  (166) 
166

>  <fda_drugs_id>  (166) 
KTEIFNKAUNYNJU-GFCCVEGCSA-N

>  <initial_conformation_id>  (166) 
127

>  <minimize_method>  (166) 
MMFF

$$$$

     RDKit          3D

 52 55  0  0  0  0  0  0  0  0999 V2000
    5.9094    0.2902    1.6856 C   0  0  0  0  0  0  0  0  0  0  0  0
    4.3826    0.2820    1.5352 C   0  0  2  0  0  0  0  0  0  0  0  0
    3.8387   -1.1379    1.3954 C   0  0  0  0  0  0  0  0  0  0  0  0
    3.1504   -1.7464    2.4731 C   0  0  0  0  0  0  0  0  0  0  0  0
    2.6168   -3.0387    2.3659 C   0  0  0  0  0  0  0  0  0  0  0  0
    2.7620   -3.7642    1.1897 C   0  0  0  0  0  0  0  0  0  0  0  0
    3.4498   -3.1968    0.1288 C   0  0  0  0  0  0  0  0  0  0  0  0
    3.9898   -1.9043    0.2166 C   0  0  0  0  0  0  0  0  0  0  0  0
    4.8418   -1.3259   -1.1782 Cl  0  0  0  0  0  0  0  0  0  0  0  0
    3.5877   -3.9246   -0.9925 F   0  0  0  0  0  0  0  0  0  0  0  0
    2.9327   -0.9680    4.0056 Cl  0  0  0  0  0  0  0  0  0  0  0  0
    4.0423    1.1252    0.4122 O   0  0  0  0  0  0  0  0  0  0  0  0
    2.7435    1.5672    0.4519 C   0  0  0  0  0  0  0  0  0  0  0  0
    1.8761    1.0992   -0.5364 C   0  0  0  0  0  0  0  0  0  0  0  0
    0.5460    1.5223   -0.5490 C   0  0  0  0  0  0  0  0  0  0  0  0
    0.1664    2.4247    0.4420 C   0  0  0  0  0  0  0  0  0  0  0  0
    0.9974    2.9265    1.3915 N   0  0  0  0  0  0  0  0  0  0  0  0
    2.2773    2.5128    1.3707 C   0  0  0  0  0  0  0  0  0  0  0  0
    3.1136    3.0882    2.3299 N   0  0  0  0  0  0  0  0  0  0  0  0
   -0.3766    1.0481   -1.5628 C   0  0  0  0  0  0  0  0  0  0  0  0
   -0.1355    0.5504   -2.8617 C   0  0  0  0  0  0  0  0  0  0  0  0
   -1.2555    0.2031   -3.4939 N   0  0  0  0  0  0  0  0  0  0  0  0
   -2.2340    0.4969   -2.6139 N   0  0  0  0  0  0  0  0  0  0  0  0
   -1.7494    0.9751   -1.4306 C   0  0  0  0  0  0  0  0  0  0  0  0
   -3.6192    0.2744   -3.0246 C   0  0  0  0  0  0  0  0  0  0  0  0
   -4.5262    1.5039   -2.8660 C   0  0  0  0  0  0  0  0  0  0  0  0
   -5.1731    1.6123   -1.4882 C   0  0  0  0  0  0  0  0  0  0  0  0
   -5.8051    0.3614   -1.0738 N   0  0  0  0  0  0  0  0  0  0  0  0
   -4.8409   -0.7356   -1.0321 C   0  0  0  0  0  0  0  0  0  0  0  0
   -4.2239   -0.9890   -2.4016 C   0  0  0  0  0  0  0  0  0  0  0  0
    6.4205   -0.0840    0.7910 H   0  0  0  0  0  0  0  0  0  0  0  0
    6.2643    1.3184    1.8313 H   0  0  0  0  0  0  0  0  0  0  0  0
    6.2372   -0.3125    2.5423 H   0  0  0  0  0  0  0  0  0  0  0  0
    4.0064    0.7508    2.4481 H   0  0  0  0  0  0  0  0  0  0  0  0
    2.0902   -3.4858    3.2028 H   0  0  0  0  0  0  0  0  0  0  0  0
    2.3573   -4.7659    1.0997 H   0  0  0  0  0  0  0  0  0  0  0  0
    2.2498    0.4005   -1.2790 H   0  0  0  0  0  0  0  0  0  0  0  0
   -0.8490    2.8085    0.5028 H   0  0  0  0  0  0  0  0  0  0  0  0
    3.9327    3.4920    1.8888 H   0  0  0  0  0  0  0  0  0  0  0  0
    2.5598    3.7839    2.8217 H   0  0  0  0  0  0  0  0  0  0  0  0
    0.8098    0.4281   -3.3764 H   0  0  0  0  0  0  0  0  0  0  0  0
   -2.4005    1.2176   -0.6055 H   0  0  0  0  0  0  0  0  0  0  0  0
   -3.5479    0.0899   -4.1070 H   0  0  0  0  0  0  0  0  0  0  0  0
   -5.3326    1.4298   -3.6109 H   0  0  0  0  0  0  0  0  0  0  0  0
   -3.9774    2.4276   -3.0942 H   0  0  0  0  0  0  0  0  0  0  0  0
   -4.4494    1.9279   -0.7307 H   0  0  0  0  0  0  0  0  0  0  0  0
   -5.9376    2.3975   -1.5143 H   0  0  0  0  0  0  0  0  0  0  0  0
   -6.5654    0.1286   -1.7175 H   0  0  0  0  0  0  0  0  0  0  0  0
   -5.3584   -1.6420   -0.6980 H   0  0  0  0  0  0  0  0  0  0  0  0
   -4.0678   -0.5312   -0.2826 H   0  0  0  0  0  0  0  0  0  0  0  0
   -3.4754   -1.7868   -2.3280 H   0  0  0  0  0  0  0  0  0  0  0  0
   -5.0117   -1.3610   -3.0710 H   0  0  0  0  0  0  0  0  0  0  0  0
  1  2  1  0
  2  3  1  0
  3  4  2  0
  4  5  1  0
  5  6  2  0
  6  7  1  0
  7  8  2  0
  8  9  1  0
  7 10  1  0
  4 11  1  0
  2 12  1  0
 12 13  1  0
 13 14  2  0
 14 15  1  0
 15 16  2  0
 16 17  1  0
 17 18  2  0
 18 19  1  0
 15 20  1  0
 20 21  1  0
 21 22  2  0
 22 23  1  0
 23 24  1  0
 23 25  1  0
 25 26  1  0
 26 27  1  0
 27 28  1  0
 28 29  1  0
 29 30  1  0
  8  3  1  0
 18 13  1  0
 24 20  2  0
 30 25  1  0
  1 31  1  0
  1 32  1  0
  1 33  1  0
  2 34  1  1
  5 35  1  0
  6 36  1  0
 14 37  1  0
 16 38  1  0
 19 39  1  0
 19 40  1  0
 21 41  1  0
 24 42  1  0
 25 43  1  0
 26 44  1  0
 26 45  1  0
 27 46  1  0
 27 47  1  0
 28 48  1  0
 29 49  1  0
 29 50  1  0
 30 51  1  0
 30 52  1  0
M  END
>  <energy_abs>  (167) 
25.261175126177786

>  <SMILES>  (167) 
C[C@H](c1c(ccc(c1Cl)F)Cl)Oc2cc(cnc2N)c3cnn(c3)C4CCNCC4

>  <cluster_no>  (167) 
167

>  <fda_drugs_id>  (167) 
KTEIFNKAUNYNJU-GFCCVEGCSA-N

>  <initial_conformation_id>  (167) 
126

>  <minimize_method>  (167) 
MMFF

$$$$

     RDKit          3D

 52 55  0  0  0  0  0  0  0  0999 V2000
    6.2436   -0.6461   -0.1205 C   0  0  0  0  0  0  0  0  0  0  0  0
    4.8037   -0.1701    0.1238 C   0  0  2  0  0  0  0  0  0  0  0  0
    4.1704   -0.8903    1.3102 C   0  0  0  0  0  0  0  0  0  0  0  0
    3.9991   -0.2167    2.5437 C   0  0  0  0  0  0  0  0  0  0  0  0
    3.3950   -0.8402    3.6469 C   0  0  0  0  0  0  0  0  0  0  0  0
    2.9590   -2.1568    3.5560 C   0  0  0  0  0  0  0  0  0  0  0  0
    3.1362   -2.8451    2.3630 C   0  0  0  0  0  0  0  0  0  0  0  0
    3.7326   -2.2336    1.2476 C   0  0  0  0  0  0  0  0  0  0  0  0
    3.8847   -3.2053   -0.1822 Cl  0  0  0  0  0  0  0  0  0  0  0  0
    2.7144   -4.1187    2.3022 F   0  0  0  0  0  0  0  0  0  0  0  0
    4.5387    1.4094    2.8005 Cl  0  0  0  0  0  0  0  0  0  0  0  0
    4.0687   -0.3438   -1.1065 O   0  0  0  0  0  0  0  0  0  0  0  0
    3.0106    0.5218   -1.2062 C   0  0  0  0  0  0  0  0  0  0  0  0
    1.7381    0.0568   -0.8736 C   0  0  0  0  0  0  0  0  0  0  0  0
    0.6364    0.9005   -1.0123 C   0  0  0  0  0  0  0  0  0  0  0  0
    0.8904    2.1852   -1.4852 C   0  0  0  0  0  0  0  0  0  0  0  0
    2.1147    2.6497   -1.8466 N   0  0  0  0  0  0  0  0  0  0  0  0
    3.1573    1.8111   -1.7331 C   0  0  0  0  0  0  0  0  0  0  0  0
    4.4004    2.2699   -2.1929 N   0  0  0  0  0  0  0  0  0  0  0  0
   -0.7019    0.4361   -0.6950 C   0  0  0  0  0  0  0  0  0  0  0  0
   -1.1414   -0.6506    0.0991 C   0  0  0  0  0  0  0  0  0  0  0  0
   -2.4688   -0.7900    0.1024 N   0  0  0  0  0  0  0  0  0  0  0  0
   -2.8959    0.1977   -0.7076 N   0  0  0  0  0  0  0  0  0  0  0  0
   -1.8728    0.9638   -1.2011 C   0  0  0  0  0  0  0  0  0  0  0  0
   -4.3219    0.3206   -0.9981 C   0  0  0  0  0  0  0  0  0  0  0  0
   -4.6163   -0.0428   -2.4602 C   0  0  0  0  0  0  0  0  0  0  0  0
   -6.0026    0.4417   -2.8559 C   0  0  0  0  0  0  0  0  0  0  0  0
   -6.1830    1.8848   -2.7033 N   0  0  0  0  0  0  0  0  0  0  0  0
   -5.2163    2.5401   -1.8261 C   0  0  0  0  0  0  0  0  0  0  0  0
   -4.8880    1.6937   -0.6001 C   0  0  0  0  0  0  0  0  0  0  0  0
    6.8698   -0.5043    0.7678 H   0  0  0  0  0  0  0  0  0  0  0  0
    6.2901   -1.7017   -0.4076 H   0  0  0  0  0  0  0  0  0  0  0  0
    6.6858   -0.0885   -0.9537 H   0  0  0  0  0  0  0  0  0  0  0  0
    4.8811    0.9045    0.3179 H   0  0  0  0  0  0  0  0  0  0  0  0
    3.2655   -0.3010    4.5842 H   0  0  0  0  0  0  0  0  0  0  0  0
    2.4913   -2.6510    4.4028 H   0  0  0  0  0  0  0  0  0  0  0  0
    1.6178   -0.9703   -0.5421 H   0  0  0  0  0  0  0  0  0  0  0  0
    0.0954    2.9167   -1.6050 H   0  0  0  0  0  0  0  0  0  0  0  0
    4.7355    1.6135   -2.8936 H   0  0  0  0  0  0  0  0  0  0  0  0
    5.0705    2.2723   -1.4364 H   0  0  0  0  0  0  0  0  0  0  0  0
   -0.5496   -1.3530    0.6735 H   0  0  0  0  0  0  0  0  0  0  0  0
   -2.0661    1.7789   -1.8832 H   0  0  0  0  0  0  0  0  0  0  0  0
   -4.8166   -0.4246   -0.3580 H   0  0  0  0  0  0  0  0  0  0  0  0
   -4.5424   -1.1286   -2.5965 H   0  0  0  0  0  0  0  0  0  0  0  0
   -3.8738    0.3996   -3.1368 H   0  0  0  0  0  0  0  0  0  0  0  0
   -6.7572   -0.0646   -2.2393 H   0  0  0  0  0  0  0  0  0  0  0  0
   -6.2111    0.1581   -3.8952 H   0  0  0  0  0  0  0  0  0  0  0  0
   -6.1913    2.3438   -3.6159 H   0  0  0  0  0  0  0  0  0  0  0  0
   -4.3004    2.7639   -2.3852 H   0  0  0  0  0  0  0  0  0  0  0  0
   -5.6319    3.5014   -1.5058 H   0  0  0  0  0  0  0  0  0  0  0  0
   -5.8120    1.5407   -0.0218 H   0  0  0  0  0  0  0  0  0  0  0  0
   -4.2043    2.2428    0.0616 H   0  0  0  0  0  0  0  0  0  0  0  0
  1  2  1  0
  2  3  1  0
  3  4  2  0
  4  5  1  0
  5  6  2  0
  6  7  1  0
  7  8  2  0
  8  9  1  0
  7 10  1  0
  4 11  1  0
  2 12  1  0
 12 13  1  0
 13 14  2  0
 14 15  1  0
 15 16  2  0
 16 17  1  0
 17 18  2  0
 18 19  1  0
 15 20  1  0
 20 21  1  0
 21 22  2  0
 22 23  1  0
 23 24  1  0
 23 25  1  0
 25 26  1  0
 26 27  1  0
 27 28  1  0
 28 29  1  0
 29 30  1  0
  8  3  1  0
 18 13  1  0
 24 20  2  0
 30 25  1  0
  1 31  1  0
  1 32  1  0
  1 33  1  0
  2 34  1  1
  5 35  1  0
  6 36  1  0
 14 37  1  0
 16 38  1  0
 19 39  1  0
 19 40  1  0
 21 41  1  0
 24 42  1  0
 25 43  1  0
 26 44  1  0
 26 45  1  0
 27 46  1  0
 27 47  1  0
 28 48  1  0
 29 49  1  0
 29 50  1  0
 30 51  1  0
 30 52  1  0
M  END
>  <energy_abs>  (168) 
40.60266121110108

>  <SMILES>  (168) 
C[C@H](c1c(ccc(c1Cl)F)Cl)Oc2cc(cnc2N)c3cnn(c3)C4CCNCC4

>  <cluster_no>  (168) 
168

>  <fda_drugs_id>  (168) 
KTEIFNKAUNYNJU-GFCCVEGCSA-N

>  <initial_conformation_id>  (168) 
123

>  <minimize_method>  (168) 
MMFF

$$$$

     RDKit          3D

 52 55  0  0  0  0  0  0  0  0999 V2000
    2.3185   -1.8563    2.5929 C   0  0  0  0  0  0  0  0  0  0  0  0
    3.1188   -1.2223    1.4522 C   0  0  2  0  0  0  0  0  0  0  0  0
    4.6190   -1.2631    1.7321 C   0  0  0  0  0  0  0  0  0  0  0  0
    5.2432   -0.4080    2.6722 C   0  0  0  0  0  0  0  0  0  0  0  0
    6.6268   -0.4641    2.9054 C   0  0  0  0  0  0  0  0  0  0  0  0
    7.4214   -1.3743    2.2194 C   0  0  0  0  0  0  0  0  0  0  0  0
    6.8295   -2.2333    1.3060 C   0  0  0  0  0  0  0  0  0  0  0  0
    5.4501   -2.1909    1.0596 C   0  0  0  0  0  0  0  0  0  0  0  0
    4.8279   -3.3258   -0.0951 Cl  0  0  0  0  0  0  0  0  0  0  0  0
    7.6123   -3.1112    0.6607 F   0  0  0  0  0  0  0  0  0  0  0  0
    4.3806    0.7570    3.6194 Cl  0  0  0  0  0  0  0  0  0  0  0  0
    2.7016    0.1434    1.2580 O   0  0  0  0  0  0  0  0  0  0  0  0
    1.9143    0.2946    0.1459 C   0  0  0  0  0  0  0  0  0  0  0  0
    0.5285    0.2664    0.2960 C   0  0  0  0  0  0  0  0  0  0  0  0
   -0.2862    0.4528   -0.8209 C   0  0  0  0  0  0  0  0  0  0  0  0
    0.3603    0.6657   -2.0372 C   0  0  0  0  0  0  0  0  0  0  0  0
    1.7074    0.7233   -2.2015 N   0  0  0  0  0  0  0  0  0  0  0  0
    2.4719    0.5638   -1.1101 C   0  0  0  0  0  0  0  0  0  0  0  0
    3.8627    0.6423   -1.2795 N   0  0  0  0  0  0  0  0  0  0  0  0
   -1.7331    0.4172   -0.7053 C   0  0  0  0  0  0  0  0  0  0  0  0
   -2.5678   -0.1528    0.2842 C   0  0  0  0  0  0  0  0  0  0  0  0
   -3.8665    0.0410    0.0433 N   0  0  0  0  0  0  0  0  0  0  0  0
   -3.8784    0.7364   -1.1091 N   0  0  0  0  0  0  0  0  0  0  0  0
   -2.6219    0.9907   -1.5918 C   0  0  0  0  0  0  0  0  0  0  0  0
   -5.1563    1.1382   -1.6924 C   0  0  0  0  0  0  0  0  0  0  0  0
   -5.3385    0.6122   -3.1257 C   0  0  0  0  0  0  0  0  0  0  0  0
   -5.2271    1.7348   -4.1506 C   0  0  0  0  0  0  0  0  0  0  0  0
   -6.2241    2.7784   -3.9271 N   0  0  0  0  0  0  0  0  0  0  0  0
   -6.4578    3.1200   -2.5252 C   0  0  0  0  0  0  0  0  0  0  0  0
   -5.3522    2.6563   -1.5869 C   0  0  0  0  0  0  0  0  0  0  0  0
    1.2541   -1.8934    2.3351 H   0  0  0  0  0  0  0  0  0  0  0  0
    2.6541   -2.8784    2.7957 H   0  0  0  0  0  0  0  0  0  0  0  0
    2.3870   -1.2807    3.5212 H   0  0  0  0  0  0  0  0  0  0  0  0
    2.8883   -1.7955    0.5482 H   0  0  0  0  0  0  0  0  0  0  0  0
    7.0898    0.2049    3.6301 H   0  0  0  0  0  0  0  0  0  0  0  0
    8.4924   -1.4234    2.3945 H   0  0  0  0  0  0  0  0  0  0  0  0
    0.1049    0.1176    1.2843 H   0  0  0  0  0  0  0  0  0  0  0  0
   -0.1944    0.7997   -2.9619 H   0  0  0  0  0  0  0  0  0  0  0  0
    4.2256    1.2944   -0.5884 H   0  0  0  0  0  0  0  0  0  0  0  0
    4.2734   -0.2655   -1.0933 H   0  0  0  0  0  0  0  0  0  0  0  0
   -2.2855   -0.7053    1.1717 H   0  0  0  0  0  0  0  0  0  0  0  0
   -2.4767    1.5576   -2.5003 H   0  0  0  0  0  0  0  0  0  0  0  0
   -5.9248    0.6516   -1.0746 H   0  0  0  0  0  0  0  0  0  0  0  0
   -4.6224   -0.1835   -3.3628 H   0  0  0  0  0  0  0  0  0  0  0  0
   -6.3358    0.1594   -3.2116 H   0  0  0  0  0  0  0  0  0  0  0  0
   -4.2228    2.1729   -4.1254 H   0  0  0  0  0  0  0  0  0  0  0  0
   -5.3676    1.3270   -5.1574 H   0  0  0  0  0  0  0  0  0  0  0  0
   -5.9777    3.6119   -4.4627 H   0  0  0  0  0  0  0  0  0  0  0  0
   -7.4097    2.6712   -2.2153 H   0  0  0  0  0  0  0  0  0  0  0  0
   -6.5857    4.2051   -2.4359 H   0  0  0  0  0  0  0  0  0  0  0  0
   -4.4257    3.1947   -1.8284 H   0  0  0  0  0  0  0  0  0  0  0  0
   -5.5995    2.9274   -0.5529 H   0  0  0  0  0  0  0  0  0  0  0  0
  1  2  1  0
  2  3  1  0
  3  4  2  0
  4  5  1  0
  5  6  2  0
  6  7  1  0
  7  8  2  0
  8  9  1  0
  7 10  1  0
  4 11  1  0
  2 12  1  0
 12 13  1  0
 13 14  2  0
 14 15  1  0
 15 16  2  0
 16 17  1  0
 17 18  2  0
 18 19  1  0
 15 20  1  0
 20 21  1  0
 21 22  2  0
 22 23  1  0
 23 24  1  0
 23 25  1  0
 25 26  1  0
 26 27  1  0
 27 28  1  0
 28 29  1  0
 29 30  1  0
  8  3  1  0
 18 13  1  0
 24 20  2  0
 30 25  1  0
  1 31  1  0
  1 32  1  0
  1 33  1  0
  2 34  1  6
  5 35  1  0
  6 36  1  0
 14 37  1  0
 16 38  1  0
 19 39  1  0
 19 40  1  0
 21 41  1  0
 24 42  1  0
 25 43  1  0
 26 44  1  0
 26 45  1  0
 27 46  1  0
 27 47  1  0
 28 48  1  0
 29 49  1  0
 29 50  1  0
 30 51  1  0
 30 52  1  0
M  END
>  <energy_abs>  (169) 
40.769124475359185

>  <SMILES>  (169) 
C[C@H](c1c(ccc(c1Cl)F)Cl)Oc2cc(cnc2N)c3cnn(c3)C4CCNCC4

>  <cluster_no>  (169) 
169

>  <fda_drugs_id>  (169) 
KTEIFNKAUNYNJU-GFCCVEGCSA-N

>  <initial_conformation_id>  (169) 
122

>  <minimize_method>  (169) 
MMFF

$$$$

     RDKit          3D

 52 55  0  0  0  0  0  0  0  0999 V2000
    6.1699   -0.4447   -0.1113 C   0  0  0  0  0  0  0  0  0  0  0  0
    4.7092   -0.0706    0.1431 C   0  0  2  0  0  0  0  0  0  0  0  0
    4.1163   -0.9091    1.2738 C   0  0  0  0  0  0  0  0  0  0  0  0
    3.9730   -0.3556    2.5696 C   0  0  0  0  0  0  0  0  0  0  0  0
    3.4046   -1.0895    3.6240 C   0  0  0  0  0  0  0  0  0  0  0  0
    2.9627   -2.3874    3.4135 C   0  0  0  0  0  0  0  0  0  0  0  0
    3.1147   -2.9581    2.1568 C   0  0  0  0  0  0  0  0  0  0  0  0
    3.6984   -2.2476    1.0975 C   0  0  0  0  0  0  0  0  0  0  0  0
    3.8678   -3.0957   -0.4052 Cl  0  0  0  0  0  0  0  0  0  0  0  0
    2.6679   -4.2092    1.9745 F   0  0  0  0  0  0  0  0  0  0  0  0
    4.4778    1.2563    2.9581 Cl  0  0  0  0  0  0  0  0  0  0  0  0
    3.9955   -0.2074   -1.1037 O   0  0  0  0  0  0  0  0  0  0  0  0
    2.9284    0.6524   -1.1836 C   0  0  0  0  0  0  0  0  0  0  0  0
    1.6684    0.2009   -0.7969 C   0  0  0  0  0  0  0  0  0  0  0  0
    0.5694    1.0500   -0.9108 C   0  0  0  0  0  0  0  0  0  0  0  0
    0.8057    2.3213   -1.4242 C   0  0  0  0  0  0  0  0  0  0  0  0
    2.0176    2.7724   -1.8373 N   0  0  0  0  0  0  0  0  0  0  0  0
    3.0625    1.9340   -1.7328 C   0  0  0  0  0  0  0  0  0  0  0  0
    4.2939    2.3749   -2.2439 N   0  0  0  0  0  0  0  0  0  0  0  0
   -0.7500    0.6035   -0.5158 C   0  0  0  0  0  0  0  0  0  0  0  0
   -1.1513   -0.3144    0.4794 C   0  0  0  0  0  0  0  0  0  0  0  0
   -2.4708   -0.5044    0.5048 N   0  0  0  0  0  0  0  0  0  0  0  0
   -2.9288    0.2839   -0.4877 N   0  0  0  0  0  0  0  0  0  0  0  0
   -1.9330    0.9819   -1.1147 C   0  0  0  0  0  0  0  0  0  0  0  0
   -4.3531    0.2582   -0.8146 C   0  0  0  0  0  0  0  0  0  0  0  0
   -4.6219   -0.4638   -2.1430 C   0  0  0  0  0  0  0  0  0  0  0  0
   -4.6204    0.4810   -3.3419 C   0  0  0  0  0  0  0  0  0  0  0  0
   -5.3718    1.7197   -3.1514 N   0  0  0  0  0  0  0  0  0  0  0  0
   -6.0159    1.8525   -1.8524 C   0  0  0  0  0  0  0  0  0  0  0  0
   -5.0017    1.6473   -0.7353 C   0  0  0  0  0  0  0  0  0  0  0  0
    6.7810   -0.3089    0.7876 H   0  0  0  0  0  0  0  0  0  0  0  0
    6.5846    0.1800   -0.9087 H   0  0  0  0  0  0  0  0  0  0  0  0
    6.2769   -1.4811   -0.4454 H   0  0  0  0  0  0  0  0  0  0  0  0
    4.7131    0.9920    0.4069 H   0  0  0  0  0  0  0  0  0  0  0  0
    3.2994   -0.6415    4.6120 H   0  0  0  0  0  0  0  0  0  0  0  0
    2.5055   -2.9594    4.2155 H   0  0  0  0  0  0  0  0  0  0  0  0
    1.5478   -0.8172   -0.4426 H   0  0  0  0  0  0  0  0  0  0  0  0
    0.0035    3.0488   -1.5283 H   0  0  0  0  0  0  0  0  0  0  0  0
    5.0029    2.3191   -1.5236 H   0  0  0  0  0  0  0  0  0  0  0  0
    4.5689    1.7301   -2.9802 H   0  0  0  0  0  0  0  0  0  0  0  0
   -0.5361   -0.8552    1.1863 H   0  0  0  0  0  0  0  0  0  0  0  0
   -2.1487    1.6532   -1.9341 H   0  0  0  0  0  0  0  0  0  0  0  0
   -4.8118   -0.3590   -0.0281 H   0  0  0  0  0  0  0  0  0  0  0  0
   -5.6078   -0.9486   -2.0858 H   0  0  0  0  0  0  0  0  0  0  0  0
   -3.8955   -1.2717   -2.3106 H   0  0  0  0  0  0  0  0  0  0  0  0
   -5.0248   -0.0554   -4.2113 H   0  0  0  0  0  0  0  0  0  0  0  0
   -3.5886    0.7462   -3.6061 H   0  0  0  0  0  0  0  0  0  0  0  0
   -6.0533    1.8425   -3.9013 H   0  0  0  0  0  0  0  0  0  0  0  0
   -6.8510    1.1464   -1.7567 H   0  0  0  0  0  0  0  0  0  0  0  0
   -6.4429    2.8585   -1.7702 H   0  0  0  0  0  0  0  0  0  0  0  0
   -5.4984    1.7625    0.2369 H   0  0  0  0  0  0  0  0  0  0  0  0
   -4.2520    2.4488   -0.7799 H   0  0  0  0  0  0  0  0  0  0  0  0
  1  2  1  0
  2  3  1  0
  3  4  2  0
  4  5  1  0
  5  6  2  0
  6  7  1  0
  7  8  2  0
  8  9  1  0
  7 10  1  0
  4 11  1  0
  2 12  1  0
 12 13  1  0
 13 14  2  0
 14 15  1  0
 15 16  2  0
 16 17  1  0
 17 18  2  0
 18 19  1  0
 15 20  1  0
 20 21  1  0
 21 22  2  0
 22 23  1  0
 23 24  1  0
 23 25  1  0
 25 26  1  0
 26 27  1  0
 27 28  1  0
 28 29  1  0
 29 30  1  0
  8  3  1  0
 18 13  1  0
 24 20  2  0
 30 25  1  0
  1 31  1  0
  1 32  1  0
  1 33  1  0
  2 34  1  1
  5 35  1  0
  6 36  1  0
 14 37  1  0
 16 38  1  0
 19 39  1  0
 19 40  1  0
 21 41  1  0
 24 42  1  0
 25 43  1  0
 26 44  1  0
 26 45  1  0
 27 46  1  0
 27 47  1  0
 28 48  1  0
 29 49  1  0
 29 50  1  0
 30 51  1  0
 30 52  1  0
M  END
>  <energy_abs>  (170) 
40.47648366784535

>  <SMILES>  (170) 
C[C@H](c1c(ccc(c1Cl)F)Cl)Oc2cc(cnc2N)c3cnn(c3)C4CCNCC4

>  <cluster_no>  (170) 
170

>  <fda_drugs_id>  (170) 
KTEIFNKAUNYNJU-GFCCVEGCSA-N

>  <initial_conformation_id>  (170) 
121

>  <minimize_method>  (170) 
MMFF

$$$$

     RDKit          3D

 52 55  0  0  0  0  0  0  0  0999 V2000
    2.1656   -1.7228    2.5746 C   0  0  0  0  0  0  0  0  0  0  0  0
    3.0295   -1.1668    1.4390 C   0  0  2  0  0  0  0  0  0  0  0  0
    4.5078   -1.4794    1.6617 C   0  0  0  0  0  0  0  0  0  0  0  0
    5.2964   -0.7986    2.6200 C   0  0  0  0  0  0  0  0  0  0  0  0
    6.6525   -1.1107    2.8049 C   0  0  0  0  0  0  0  0  0  0  0  0
    7.2563   -2.1086    2.0499 C   0  0  0  0  0  0  0  0  0  0  0  0
    6.4997   -2.7980    1.1157 C   0  0  0  0  0  0  0  0  0  0  0  0
    5.1440   -2.5012    0.9181 C   0  0  0  0  0  0  0  0  0  0  0  0
    4.3020   -3.4477   -0.2655 Cl  0  0  0  0  0  0  0  0  0  0  0  0
    7.0989   -3.7646    0.4032 F   0  0  0  0  0  0  0  0  0  0  0  0
    4.6768    0.4491    3.6483 Cl  0  0  0  0  0  0  0  0  0  0  0  0
    2.8434    0.2587    1.3351 O   0  0  0  0  0  0  0  0  0  0  0  0
    2.0896    0.6071    0.2448 C   0  0  0  0  0  0  0  0  0  0  0  0
    0.7153    0.7754    0.4038 C   0  0  0  0  0  0  0  0  0  0  0  0
   -0.0593    1.1535   -0.6928 C   0  0  0  0  0  0  0  0  0  0  0  0
    0.6143    1.3593   -1.8952 C   0  0  0  0  0  0  0  0  0  0  0  0
    1.9544    1.2247   -2.0659 N   0  0  0  0  0  0  0  0  0  0  0  0
    2.6839    0.8755   -0.9945 C   0  0  0  0  0  0  0  0  0  0  0  0
    4.0690    0.7427   -1.1736 N   0  0  0  0  0  0  0  0  0  0  0  0
   -1.4944    1.3277   -0.5687 C   0  0  0  0  0  0  0  0  0  0  0  0
   -2.2941    1.6296    0.5578 C   0  0  0  0  0  0  0  0  0  0  0  0
   -3.5958    1.6898    0.2683 N   0  0  0  0  0  0  0  0  0  0  0  0
   -3.6428    1.4275   -1.0509 N   0  0  0  0  0  0  0  0  0  0  0  0
   -2.4077    1.2000   -1.5956 C   0  0  0  0  0  0  0  0  0  0  0  0
   -4.9328    1.4028   -1.7293 C   0  0  0  0  0  0  0  0  0  0  0  0
   -5.2655    0.0095   -2.2739 C   0  0  0  0  0  0  0  0  0  0  0  0
   -6.6046    0.0293   -3.0033 C   0  0  0  0  0  0  0  0  0  0  0  0
   -6.6282    1.0347   -4.0658 N   0  0  0  0  0  0  0  0  0  0  0  0
   -6.3695    2.3766   -3.5435 C   0  0  0  0  0  0  0  0  0  0  0  0
   -5.0198    2.4574   -2.8379 C   0  0  0  0  0  0  0  0  0  0  0  0
    2.3356   -2.7952    2.7159 H   0  0  0  0  0  0  0  0  0  0  0  0
    2.3522   -1.2159    3.5256 H   0  0  0  0  0  0  0  0  0  0  0  0
    1.1035   -1.5737    2.3531 H   0  0  0  0  0  0  0  0  0  0  0  0
    2.6785   -1.6392    0.5153 H   0  0  0  0  0  0  0  0  0  0  0  0
    7.2436   -0.5744    3.5458 H   0  0  0  0  0  0  0  0  0  0  0  0
    8.3048   -2.3568    2.1867 H   0  0  0  0  0  0  0  0  0  0  0  0
    0.2677    0.6042    1.3780 H   0  0  0  0  0  0  0  0  0  0  0  0
    0.0901    1.6659   -2.7963 H   0  0  0  0  0  0  0  0  0  0  0  0
    4.3255   -0.2331   -1.0741 H   0  0  0  0  0  0  0  0  0  0  0  0
    4.5349    1.2633   -0.4338 H   0  0  0  0  0  0  0  0  0  0  0  0
   -1.9825    1.8127    1.5784 H   0  0  0  0  0  0  0  0  0  0  0  0
   -2.2939    0.9609   -2.6437 H   0  0  0  0  0  0  0  0  0  0  0  0
   -5.6821    1.6546   -0.9645 H   0  0  0  0  0  0  0  0  0  0  0  0
   -5.3020   -0.7181   -1.4540 H   0  0  0  0  0  0  0  0  0  0  0  0
   -4.4814   -0.3341   -2.9615 H   0  0  0  0  0  0  0  0  0  0  0  0
   -6.7952   -0.9554   -3.4439 H   0  0  0  0  0  0  0  0  0  0  0  0
   -7.4216    0.2178   -2.2962 H   0  0  0  0  0  0  0  0  0  0  0  0
   -5.9328    0.8004   -4.7762 H   0  0  0  0  0  0  0  0  0  0  0  0
   -7.1758    2.6708   -2.8603 H   0  0  0  0  0  0  0  0  0  0  0  0
   -6.3904    3.0899   -4.3745 H   0  0  0  0  0  0  0  0  0  0  0  0
   -4.8820    3.4609   -2.4168 H   0  0  0  0  0  0  0  0  0  0  0  0
   -4.2168    2.3126   -3.5725 H   0  0  0  0  0  0  0  0  0  0  0  0
  1  2  1  0
  2  3  1  0
  3  4  2  0
  4  5  1  0
  5  6  2  0
  6  7  1  0
  7  8  2  0
  8  9  1  0
  7 10  1  0
  4 11  1  0
  2 12  1  0
 12 13  1  0
 13 14  2  0
 14 15  1  0
 15 16  2  0
 16 17  1  0
 17 18  2  0
 18 19  1  0
 15 20  1  0
 20 21  1  0
 21 22  2  0
 22 23  1  0
 23 24  1  0
 23 25  1  0
 25 26  1  0
 26 27  1  0
 27 28  1  0
 28 29  1  0
 29 30  1  0
  8  3  1  0
 18 13  1  0
 24 20  2  0
 30 25  1  0
  1 31  1  0
  1 32  1  0
  1 33  1  0
  2 34  1  6
  5 35  1  0
  6 36  1  0
 14 37  1  0
 16 38  1  0
 19 39  1  0
 19 40  1  0
 21 41  1  0
 24 42  1  0
 25 43  1  0
 26 44  1  0
 26 45  1  0
 27 46  1  0
 27 47  1  0
 28 48  1  0
 29 49  1  0
 29 50  1  0
 30 51  1  0
 30 52  1  0
M  END
>  <energy_abs>  (171) 
35.821317571053775

>  <SMILES>  (171) 
C[C@H](c1c(ccc(c1Cl)F)Cl)Oc2cc(cnc2N)c3cnn(c3)C4CCNCC4

>  <cluster_no>  (171) 
171

>  <fda_drugs_id>  (171) 
KTEIFNKAUNYNJU-GFCCVEGCSA-N

>  <initial_conformation_id>  (171) 
120

>  <minimize_method>  (171) 
MMFF

$$$$

     RDKit          3D

 52 55  0  0  0  0  0  0  0  0999 V2000
    6.1736   -0.7004    0.0176 C   0  0  0  0  0  0  0  0  0  0  0  0
    4.7219   -0.2208    0.0842 C   0  0  2  0  0  0  0  0  0  0  0  0
    4.0056   -0.7805    1.3116 C   0  0  0  0  0  0  0  0  0  0  0  0
    3.7566    0.0469    2.4320 C   0  0  0  0  0  0  0  0  0  0  0  0
    3.0931   -0.4368    3.5692 C   0  0  0  0  0  0  0  0  0  0  0  0
    2.6684   -1.7580    3.6246 C   0  0  0  0  0  0  0  0  0  0  0  0
    2.9146   -2.5919    2.5442 C   0  0  0  0  0  0  0  0  0  0  0  0
    3.5759   -2.1255    1.3989 C   0  0  0  0  0  0  0  0  0  0  0  0
    3.8291   -3.2807    0.1321 Cl  0  0  0  0  0  0  0  0  0  0  0  0
    2.5029   -3.8665    2.6247 F   0  0  0  0  0  0  0  0  0  0  0  0
    4.2575    1.7031    2.5037 Cl  0  0  0  0  0  0  0  0  0  0  0  0
    4.0618   -0.6056   -1.1400 O   0  0  0  0  0  0  0  0  0  0  0  0
    3.1283    0.3213   -1.5261 C   0  0  0  0  0  0  0  0  0  0  0  0
    1.7815    0.0332   -1.3168 C   0  0  0  0  0  0  0  0  0  0  0  0
    0.8134    0.9579   -1.7089 C   0  0  0  0  0  0  0  0  0  0  0  0
    1.2707    2.1229   -2.3234 C   0  0  0  0  0  0  0  0  0  0  0  0
    2.5757    2.4132   -2.5676 N   0  0  0  0  0  0  0  0  0  0  0  0
    3.4845    1.5028   -2.1823 C   0  0  0  0  0  0  0  0  0  0  0  0
    4.8202    1.8164   -2.4422 N   0  0  0  0  0  0  0  0  0  0  0  0
   -0.5967    0.7012   -1.4843 C   0  0  0  0  0  0  0  0  0  0  0  0
   -1.2958   -0.5138   -1.3004 C   0  0  0  0  0  0  0  0  0  0  0  0
   -2.6021   -0.3335   -1.0973 N   0  0  0  0  0  0  0  0  0  0  0  0
   -2.7568    1.0000   -1.1481 N   0  0  0  0  0  0  0  0  0  0  0  0
   -1.5798    1.6640   -1.3766 C   0  0  0  0  0  0  0  0  0  0  0  0
   -4.0692    1.6152   -0.9630 C   0  0  0  0  0  0  0  0  0  0  0  0
   -5.0618    1.2401   -2.0719 C   0  0  0  0  0  0  0  0  0  0  0  0
   -5.7696   -0.0876   -1.8115 C   0  0  0  0  0  0  0  0  0  0  0  0
   -6.3930   -0.1131   -0.4879 N   0  0  0  0  0  0  0  0  0  0  0  0
   -5.3790    0.0373    0.5558 C   0  0  0  0  0  0  0  0  0  0  0  0
   -4.6467    1.3720    0.4383 C   0  0  0  0  0  0  0  0  0  0  0  0
    6.2491   -1.7833   -0.1171 H   0  0  0  0  0  0  0  0  0  0  0  0
    6.6791   -0.2495   -0.8437 H   0  0  0  0  0  0  0  0  0  0  0  0
    6.7253   -0.4289    0.9238 H   0  0  0  0  0  0  0  0  0  0  0  0
    4.7719    0.8712    0.1311 H   0  0  0  0  0  0  0  0  0  0  0  0
    2.9085    0.2177    4.4192 H   0  0  0  0  0  0  0  0  0  0  0  0
    2.1544   -2.1444    4.4994 H   0  0  0  0  0  0  0  0  0  0  0  0
    1.5090   -0.9017   -0.8373 H   0  0  0  0  0  0  0  0  0  0  0  0
    0.5823    2.8894   -2.6689 H   0  0  0  0  0  0  0  0  0  0  0  0
    4.8232    2.6696   -2.9949 H   0  0  0  0  0  0  0  0  0  0  0  0
    5.2752    1.0438   -2.9176 H   0  0  0  0  0  0  0  0  0  0  0  0
   -0.9092   -1.5253   -1.3086 H   0  0  0  0  0  0  0  0  0  0  0  0
   -1.5500    2.7436   -1.4276 H   0  0  0  0  0  0  0  0  0  0  0  0
   -3.8794    2.6943   -1.0510 H   0  0  0  0  0  0  0  0  0  0  0  0
   -4.5639    1.2084   -3.0487 H   0  0  0  0  0  0  0  0  0  0  0  0
   -5.8229    2.0296   -2.1349 H   0  0  0  0  0  0  0  0  0  0  0  0
   -5.0843   -0.9347   -1.9245 H   0  0  0  0  0  0  0  0  0  0  0  0
   -6.5514   -0.2293   -2.5665 H   0  0  0  0  0  0  0  0  0  0  0  0
   -7.0817    0.6343   -0.4139 H   0  0  0  0  0  0  0  0  0  0  0  0
   -5.8749   -0.0127    1.5320 H   0  0  0  0  0  0  0  0  0  0  0  0
   -4.6800   -0.8057    0.5297 H   0  0  0  0  0  0  0  0  0  0  0  0
   -5.3600    2.1770    0.6617 H   0  0  0  0  0  0  0  0  0  0  0  0
   -3.8609    1.4313    1.2011 H   0  0  0  0  0  0  0  0  0  0  0  0
  1  2  1  0
  2  3  1  0
  3  4  2  0
  4  5  1  0
  5  6  2  0
  6  7  1  0
  7  8  2  0
  8  9  1  0
  7 10  1  0
  4 11  1  0
  2 12  1  0
 12 13  1  0
 13 14  2  0
 14 15  1  0
 15 16  2  0
 16 17  1  0
 17 18  2  0
 18 19  1  0
 15 20  1  0
 20 21  1  0
 21 22  2  0
 22 23  1  0
 23 24  1  0
 23 25  1  0
 25 26  1  0
 26 27  1  0
 27 28  1  0
 28 29  1  0
 29 30  1  0
  8  3  1  0
 18 13  1  0
 24 20  2  0
 30 25  1  0
  1 31  1  0
  1 32  1  0
  1 33  1  0
  2 34  1  1
  5 35  1  0
  6 36  1  0
 14 37  1  0
 16 38  1  0
 19 39  1  0
 19 40  1  0
 21 41  1  0
 24 42  1  0
 25 43  1  0
 26 44  1  0
 26 45  1  0
 27 46  1  0
 27 47  1  0
 28 48  1  0
 29 49  1  0
 29 50  1  0
 30 51  1  0
 30 52  1  0
M  END
>  <energy_abs>  (172) 
23.4423023230609

>  <SMILES>  (172) 
C[C@H](c1c(ccc(c1Cl)F)Cl)Oc2cc(cnc2N)c3cnn(c3)C4CCNCC4

>  <cluster_no>  (172) 
172

>  <fda_drugs_id>  (172) 
KTEIFNKAUNYNJU-GFCCVEGCSA-N

>  <initial_conformation_id>  (172) 
118

>  <minimize_method>  (172) 
MMFF

$$$$

     RDKit          3D

 52 55  0  0  0  0  0  0  0  0999 V2000
    3.0316    0.3987    3.2778 C   0  0  0  0  0  0  0  0  0  0  0  0
    3.2144   -0.0965    1.8408 C   0  0  2  0  0  0  0  0  0  0  0  0
    4.5299   -0.8509    1.6822 C   0  0  0  0  0  0  0  0  0  0  0  0
    5.7812   -0.1973    1.6013 C   0  0  0  0  0  0  0  0  0  0  0  0
    6.9744   -0.9199    1.4436 C   0  0  0  0  0  0  0  0  0  0  0  0
    6.9538   -2.3071    1.3699 C   0  0  0  0  0  0  0  0  0  0  0  0
    5.7397   -2.9692    1.4633 C   0  0  0  0  0  0  0  0  0  0  0  0
    4.5393   -2.2642    1.6225 C   0  0  0  0  0  0  0  0  0  0  0  0
    3.0923   -3.2091    1.7710 Cl  0  0  0  0  0  0  0  0  0  0  0  0
    5.7439   -4.3101    1.4094 F   0  0  0  0  0  0  0  0  0  0  0  0
    5.9625    1.5226    1.6938 Cl  0  0  0  0  0  0  0  0  0  0  0  0
    3.1297    1.0441    0.9615 O   0  0  0  0  0  0  0  0  0  0  0  0
    2.3454    0.7802   -0.1314 C   0  0  0  0  0  0  0  0  0  0  0  0
    0.9755    1.0281   -0.0556 C   0  0  0  0  0  0  0  0  0  0  0  0
    0.1721    0.7794   -1.1686 C   0  0  0  0  0  0  0  0  0  0  0  0
    0.8129    0.3094   -2.3139 C   0  0  0  0  0  0  0  0  0  0  0  0
    2.1488    0.0861   -2.4206 N   0  0  0  0  0  0  0  0  0  0  0  0
    2.8990    0.3391   -1.3354 C   0  0  0  0  0  0  0  0  0  0  0  0
    4.2663    0.0944   -1.4645 N   0  0  0  0  0  0  0  0  0  0  0  0
   -1.2588    1.0123   -1.1236 C   0  0  0  0  0  0  0  0  0  0  0  0
   -2.0272    1.8857   -0.3192 C   0  0  0  0  0  0  0  0  0  0  0  0
   -3.3365    1.7999   -0.5647 N   0  0  0  0  0  0  0  0  0  0  0  0
   -3.4190    0.8638   -1.5295 N   0  0  0  0  0  0  0  0  0  0  0  0
   -2.1996    0.3629   -1.8969 C   0  0  0  0  0  0  0  0  0  0  0  0
   -4.7181    0.4750   -2.0737 C   0  0  0  0  0  0  0  0  0  0  0  0
   -5.3123    1.6053   -2.9265 C   0  0  0  0  0  0  0  0  0  0  0  0
   -6.8163    1.4277   -3.0817 C   0  0  0  0  0  0  0  0  0  0  0  0
   -7.5412    1.3959   -1.8126 N   0  0  0  0  0  0  0  0  0  0  0  0
   -6.7165    1.0574   -0.6501 C   0  0  0  0  0  0  0  0  0  0  0  0
   -5.6822   -0.0113   -0.9800 C   0  0  0  0  0  0  0  0  0  0  0  0
    2.0619    0.8983    3.3824 H   0  0  0  0  0  0  0  0  0  0  0  0
    3.7886    1.1362    3.5613 H   0  0  0  0  0  0  0  0  0  0  0  0
    3.0743   -0.4286    3.9938 H   0  0  0  0  0  0  0  0  0  0  0  0
    2.3627   -0.7557    1.6409 H   0  0  0  0  0  0  0  0  0  0  0  0
    7.9277   -0.3990    1.3774 H   0  0  0  0  0  0  0  0  0  0  0  0
    7.8709   -2.8745    1.2471 H   0  0  0  0  0  0  0  0  0  0  0  0
    0.5546    1.3977    0.8742 H   0  0  0  0  0  0  0  0  0  0  0  0
    0.2614    0.1005   -3.2267 H   0  0  0  0  0  0  0  0  0  0  0  0
    4.7979    0.8928   -1.1311 H   0  0  0  0  0  0  0  0  0  0  0  0
    4.4427   -0.1189   -2.4420 H   0  0  0  0  0  0  0  0  0  0  0  0
   -1.6872    2.5858    0.4332 H   0  0  0  0  0  0  0  0  0  0  0  0
   -2.1167   -0.4061   -2.6524 H   0  0  0  0  0  0  0  0  0  0  0  0
   -4.5146   -0.3829   -2.7294 H   0  0  0  0  0  0  0  0  0  0  0  0
   -4.8312    1.6146   -3.9124 H   0  0  0  0  0  0  0  0  0  0  0  0
   -5.1112    2.5893   -2.4826 H   0  0  0  0  0  0  0  0  0  0  0  0
   -7.0175    0.4917   -3.6166 H   0  0  0  0  0  0  0  0  0  0  0  0
   -7.2216    2.2313   -3.7071 H   0  0  0  0  0  0  0  0  0  0  0  0
   -7.9911    2.2964   -1.6429 H   0  0  0  0  0  0  0  0  0  0  0  0
   -6.2232    1.9597   -0.2693 H   0  0  0  0  0  0  0  0  0  0  0  0
   -7.3748    0.6971    0.1478 H   0  0  0  0  0  0  0  0  0  0  0  0
   -6.2056   -0.9080   -1.3387 H   0  0  0  0  0  0  0  0  0  0  0  0
   -5.1480   -0.3144   -0.0716 H   0  0  0  0  0  0  0  0  0  0  0  0
  1  2  1  0
  2  3  1  0
  3  4  2  0
  4  5  1  0
  5  6  2  0
  6  7  1  0
  7  8  2  0
  8  9  1  0
  7 10  1  0
  4 11  1  0
  2 12  1  0
 12 13  1  0
 13 14  2  0
 14 15  1  0
 15 16  2  0
 16 17  1  0
 17 18  2  0
 18 19  1  0
 15 20  1  0
 20 21  1  0
 21 22  2  0
 22 23  1  0
 23 24  1  0
 23 25  1  0
 25 26  1  0
 26 27  1  0
 27 28  1  0
 28 29  1  0
 29 30  1  0
  8  3  1  0
 18 13  1  0
 24 20  2  0
 30 25  1  0
  1 31  1  0
  1 32  1  0
  1 33  1  0
  2 34  1  6
  5 35  1  0
  6 36  1  0
 14 37  1  0
 16 38  1  0
 19 39  1  0
 19 40  1  0
 21 41  1  0
 24 42  1  0
 25 43  1  0
 26 44  1  0
 26 45  1  0
 27 46  1  0
 27 47  1  0
 28 48  1  0
 29 49  1  0
 29 50  1  0
 30 51  1  0
 30 52  1  0
M  END
>  <energy_abs>  (173) 
27.399687547791018

>  <SMILES>  (173) 
C[C@H](c1c(ccc(c1Cl)F)Cl)Oc2cc(cnc2N)c3cnn(c3)C4CCNCC4

>  <cluster_no>  (173) 
173

>  <fda_drugs_id>  (173) 
KTEIFNKAUNYNJU-GFCCVEGCSA-N

>  <initial_conformation_id>  (173) 
117

>  <minimize_method>  (173) 
MMFF

$$$$

     RDKit          3D

 52 55  0  0  0  0  0  0  0  0999 V2000
    3.4411    1.4127    1.3126 C   0  0  0  0  0  0  0  0  0  0  0  0
    3.3339   -0.0980    1.0915 C   0  0  2  0  0  0  0  0  0  0  0  0
    4.4162   -0.8391    1.8783 C   0  0  0  0  0  0  0  0  0  0  0  0
    4.0955   -1.4835    3.0978 C   0  0  0  0  0  0  0  0  0  0  0  0
    5.0612   -2.1822    3.8370 C   0  0  0  0  0  0  0  0  0  0  0  0
    6.3740   -2.2471    3.3892 C   0  0  0  0  0  0  0  0  0  0  0  0
    6.7184   -1.6024    2.2103 C   0  0  0  0  0  0  0  0  0  0  0  0
    5.7660   -0.8991    1.4578 C   0  0  0  0  0  0  0  0  0  0  0  0
    6.3469   -0.1114    0.0285 Cl  0  0  0  0  0  0  0  0  0  0  0  0
    7.9972   -1.6654    1.8084 F   0  0  0  0  0  0  0  0  0  0  0  0
    2.5057   -1.4449    3.7876 Cl  0  0  0  0  0  0  0  0  0  0  0  0
    3.4426   -0.4346   -0.2950 O   0  0  0  0  0  0  0  0  0  0  0  0
    2.3848   -0.2493   -1.1453 C   0  0  0  0  0  0  0  0  0  0  0  0
    1.0704    0.0390   -0.7718 C   0  0  0  0  0  0  0  0  0  0  0  0
    0.0751    0.1699   -1.7480 C   0  0  0  0  0  0  0  0  0  0  0  0
    0.4616   -0.0081   -3.0727 C   0  0  0  0  0  0  0  0  0  0  0  0
    1.7241   -0.2871   -3.4744 N   0  0  0  0  0  0  0  0  0  0  0  0
    2.6595   -0.4042   -2.5144 C   0  0  0  0  0  0  0  0  0  0  0  0
    3.9618   -0.6134   -2.9677 N   0  0  0  0  0  0  0  0  0  0  0  0
   -1.2980    0.4673   -1.3797 C   0  0  0  0  0  0  0  0  0  0  0  0
   -1.9989    0.2526   -0.1696 C   0  0  0  0  0  0  0  0  0  0  0  0
   -3.2616    0.6819   -0.2175 N   0  0  0  0  0  0  0  0  0  0  0  0
   -3.3852    1.1713   -1.4650 N   0  0  0  0  0  0  0  0  0  0  0  0
   -2.2327    1.0708   -2.1967 C   0  0  0  0  0  0  0  0  0  0  0  0
   -4.6531    1.7363   -1.9190 C   0  0  0  0  0  0  0  0  0  0  0  0
   -5.1912    2.8216   -0.9713 C   0  0  0  0  0  0  0  0  0  0  0  0
   -6.3076    2.2755   -0.0892 C   0  0  0  0  0  0  0  0  0  0  0  0
   -7.4457    1.7755   -0.8623 N   0  0  0  0  0  0  0  0  0  0  0  0
   -7.0950    1.1983   -2.1589 C   0  0  0  0  0  0  0  0  0  0  0  0
   -5.6822    0.6295   -2.1919 C   0  0  0  0  0  0  0  0  0  0  0  0
    2.6218    1.9414    0.8147 H   0  0  0  0  0  0  0  0  0  0  0  0
    4.3657    1.8235    0.8951 H   0  0  0  0  0  0  0  0  0  0  0  0
    3.4065    1.6622    2.3783 H   0  0  0  0  0  0  0  0  0  0  0  0
    2.3625   -0.4454    1.4438 H   0  0  0  0  0  0  0  0  0  0  0  0
    4.7916   -2.6761    4.7689 H   0  0  0  0  0  0  0  0  0  0  0  0
    7.1313   -2.7837    3.9521 H   0  0  0  0  0  0  0  0  0  0  0  0
    0.7998    0.1757    0.2680 H   0  0  0  0  0  0  0  0  0  0  0  0
   -0.2514    0.0616   -3.8892 H   0  0  0  0  0  0  0  0  0  0  0  0
    4.4431   -1.3109   -2.4125 H   0  0  0  0  0  0  0  0  0  0  0  0
    3.9303   -0.8115   -3.9616 H   0  0  0  0  0  0  0  0  0  0  0  0
   -1.6449   -0.2029    0.7463 H   0  0  0  0  0  0  0  0  0  0  0  0
   -2.1836    1.4394   -3.2120 H   0  0  0  0  0  0  0  0  0  0  0  0
   -4.4223    2.2334   -2.8714 H   0  0  0  0  0  0  0  0  0  0  0  0
   -5.5939    3.6495   -1.5708 H   0  0  0  0  0  0  0  0  0  0  0  0
   -4.3944    3.2527   -0.3534 H   0  0  0  0  0  0  0  0  0  0  0  0
   -6.6596    3.0599    0.5904 H   0  0  0  0  0  0  0  0  0  0  0  0
   -5.9274    1.4679    0.5469 H   0  0  0  0  0  0  0  0  0  0  0  0
   -8.1437    2.5087   -0.9878 H   0  0  0  0  0  0  0  0  0  0  0  0
   -7.8182    0.4118   -2.4001 H   0  0  0  0  0  0  0  0  0  0  0  0
   -7.1929    1.9677   -2.9349 H   0  0  0  0  0  0  0  0  0  0  0  0
   -5.4829    0.1743   -3.1701 H   0  0  0  0  0  0  0  0  0  0  0  0
   -5.6003   -0.1824   -1.4568 H   0  0  0  0  0  0  0  0  0  0  0  0
  1  2  1  0
  2  3  1  0
  3  4  2  0
  4  5  1  0
  5  6  2  0
  6  7  1  0
  7  8  2  0
  8  9  1  0
  7 10  1  0
  4 11  1  0
  2 12  1  0
 12 13  1  0
 13 14  2  0
 14 15  1  0
 15 16  2  0
 16 17  1  0
 17 18  2  0
 18 19  1  0
 15 20  1  0
 20 21  1  0
 21 22  2  0
 22 23  1  0
 23 24  1  0
 23 25  1  0
 25 26  1  0
 26 27  1  0
 27 28  1  0
 28 29  1  0
 29 30  1  0
  8  3  1  0
 18 13  1  0
 24 20  2  0
 30 25  1  0
  1 31  1  0
  1 32  1  0
  1 33  1  0
  2 34  1  1
  5 35  1  0
  6 36  1  0
 14 37  1  0
 16 38  1  0
 19 39  1  0
 19 40  1  0
 21 41  1  0
 24 42  1  0
 25 43  1  0
 26 44  1  0
 26 45  1  0
 27 46  1  0
 27 47  1  0
 28 48  1  0
 29 49  1  0
 29 50  1  0
 30 51  1  0
 30 52  1  0
M  END
>  <energy_abs>  (174) 
32.05596825218575

>  <SMILES>  (174) 
C[C@H](c1c(ccc(c1Cl)F)Cl)Oc2cc(cnc2N)c3cnn(c3)C4CCNCC4

>  <cluster_no>  (174) 
174

>  <fda_drugs_id>  (174) 
KTEIFNKAUNYNJU-GFCCVEGCSA-N

>  <initial_conformation_id>  (174) 
116

>  <minimize_method>  (174) 
MMFF

$$$$

     RDKit          3D

 52 55  0  0  0  0  0  0  0  0999 V2000
    3.3981    1.0612    2.5664 C   0  0  0  0  0  0  0  0  0  0  0  0
    3.3839   -0.0845    1.5500 C   0  0  2  0  0  0  0  0  0  0  0  0
    4.6426   -0.9424    1.6645 C   0  0  0  0  0  0  0  0  0  0  0  0
    4.5886   -2.2097    2.2939 C   0  0  0  0  0  0  0  0  0  0  0  0
    5.7302   -3.0159    2.4202 C   0  0  0  0  0  0  0  0  0  0  0  0
    6.9570   -2.5782    1.9348 C   0  0  0  0  0  0  0  0  0  0  0  0
    7.0376   -1.3341    1.3254 C   0  0  0  0  0  0  0  0  0  0  0  0
    5.9064   -0.5157    1.1875 C   0  0  0  0  0  0  0  0  0  0  0  0
    6.1569    1.0199    0.4214 Cl  0  0  0  0  0  0  0  0  0  0  0  0
    8.2352   -0.9273    0.8735 F   0  0  0  0  0  0  0  0  0  0  0  0
    3.1300   -2.8601    2.9693 Cl  0  0  0  0  0  0  0  0  0  0  0  0
    3.2714    0.4617    0.2217 O   0  0  0  0  0  0  0  0  0  0  0  0
    2.1401    0.0404   -0.4269 C   0  0  0  0  0  0  0  0  0  0  0  0
    0.9146    0.6486   -0.1544 C   0  0  0  0  0  0  0  0  0  0  0  0
   -0.2231    0.2446   -0.8547 C   0  0  0  0  0  0  0  0  0  0  0  0
   -0.0483   -0.7686   -1.7959 C   0  0  0  0  0  0  0  0  0  0  0  0
    1.1388   -1.3580   -2.0939 N   0  0  0  0  0  0  0  0  0  0  0  0
    2.2238   -0.9331   -1.4285 C   0  0  0  0  0  0  0  0  0  0  0  0
    3.4595   -1.5167   -1.7590 N   0  0  0  0  0  0  0  0  0  0  0  0
   -1.5128    0.8679   -0.6111 C   0  0  0  0  0  0  0  0  0  0  0  0
   -1.9681    1.6664    0.4658 C   0  0  0  0  0  0  0  0  0  0  0  0
   -3.2263    2.0845    0.3101 N   0  0  0  0  0  0  0  0  0  0  0  0
   -3.5875    1.5730   -0.8814 N   0  0  0  0  0  0  0  0  0  0  0  0
   -2.5984    0.8223   -1.4624 C   0  0  0  0  0  0  0  0  0  0  0  0
   -4.9240    1.8361   -1.4062 C   0  0  0  0  0  0  0  0  0  0  0  0
   -4.8869    2.5704   -2.7598 C   0  0  0  0  0  0  0  0  0  0  0  0
   -5.9270    2.0305   -3.7406 C   0  0  0  0  0  0  0  0  0  0  0  0
   -7.2057    1.8453   -3.0692 N   0  0  0  0  0  0  0  0  0  0  0  0
   -7.1625    0.8494   -2.0004 C   0  0  0  0  0  0  0  0  0  0  0  0
   -5.7592    0.5546   -1.4712 C   0  0  0  0  0  0  0  0  0  0  0  0
    4.1884    1.7888    2.3599 H   0  0  0  0  0  0  0  0  0  0  0  0
    3.5361    0.6886    3.5877 H   0  0  0  0  0  0  0  0  0  0  0  0
    2.4535    1.6143    2.5273 H   0  0  0  0  0  0  0  0  0  0  0  0
    2.4950   -0.6878    1.7675 H   0  0  0  0  0  0  0  0  0  0  0  0
    5.6666   -3.9890    2.9064 H   0  0  0  0  0  0  0  0  0  0  0  0
    7.8500   -3.1907    2.0299 H   0  0  0  0  0  0  0  0  0  0  0  0
    0.8690    1.4453    0.5801 H   0  0  0  0  0  0  0  0  0  0  0  0
   -0.8812   -1.1625   -2.3711 H   0  0  0  0  0  0  0  0  0  0  0  0
    4.1077   -0.7594   -1.9706 H   0  0  0  0  0  0  0  0  0  0  0  0
    3.8230   -1.9931   -0.9420 H   0  0  0  0  0  0  0  0  0  0  0  0
   -1.4368    1.9618    1.3614 H   0  0  0  0  0  0  0  0  0  0  0  0
   -2.7516    0.3526   -2.4239 H   0  0  0  0  0  0  0  0  0  0  0  0
   -5.4029    2.5072   -0.6784 H   0  0  0  0  0  0  0  0  0  0  0  0
   -3.8972    2.5206   -3.2339 H   0  0  0  0  0  0  0  0  0  0  0  0
   -5.0743    3.6388   -2.5778 H   0  0  0  0  0  0  0  0  0  0  0  0
   -6.0476    2.7457   -4.5614 H   0  0  0  0  0  0  0  0  0  0  0  0
   -5.5887    1.0899   -4.1934 H   0  0  0  0  0  0  0  0  0  0  0  0
   -7.9366    1.6047   -3.7407 H   0  0  0  0  0  0  0  0  0  0  0  0
   -7.6100   -0.0877   -2.3506 H   0  0  0  0  0  0  0  0  0  0  0  0
   -7.7937    1.2112   -1.1814 H   0  0  0  0  0  0  0  0  0  0  0  0
   -5.8294    0.0892   -0.4808 H   0  0  0  0  0  0  0  0  0  0  0  0
   -5.2722   -0.1823   -2.1232 H   0  0  0  0  0  0  0  0  0  0  0  0
  1  2  1  0
  2  3  1  0
  3  4  2  0
  4  5  1  0
  5  6  2  0
  6  7  1  0
  7  8  2  0
  8  9  1  0
  7 10  1  0
  4 11  1  0
  2 12  1  0
 12 13  1  0
 13 14  2  0
 14 15  1  0
 15 16  2  0
 16 17  1  0
 17 18  2  0
 18 19  1  0
 15 20  1  0
 20 21  1  0
 21 22  2  0
 22 23  1  0
 23 24  1  0
 23 25  1  0
 25 26  1  0
 26 27  1  0
 27 28  1  0
 28 29  1  0
 29 30  1  0
  8  3  1  0
 18 13  1  0
 24 20  2  0
 30 25  1  0
  1 31  1  0
  1 32  1  0
  1 33  1  0
  2 34  1  1
  5 35  1  0
  6 36  1  0
 14 37  1  0
 16 38  1  0
 19 39  1  0
 19 40  1  0
 21 41  1  0
 24 42  1  0
 25 43  1  0
 26 44  1  0
 26 45  1  0
 27 46  1  0
 27 47  1  0
 28 48  1  0
 29 49  1  0
 29 50  1  0
 30 51  1  0
 30 52  1  0
M  END
>  <energy_abs>  (175) 
40.39818393535508

>  <SMILES>  (175) 
C[C@H](c1c(ccc(c1Cl)F)Cl)Oc2cc(cnc2N)c3cnn(c3)C4CCNCC4

>  <cluster_no>  (175) 
175

>  <fda_drugs_id>  (175) 
KTEIFNKAUNYNJU-GFCCVEGCSA-N

>  <initial_conformation_id>  (175) 
115

>  <minimize_method>  (175) 
MMFF

$$$$

     RDKit          3D

 52 55  0  0  0  0  0  0  0  0999 V2000
    4.5387    1.1601    1.9006 C   0  0  0  0  0  0  0  0  0  0  0  0
    3.5580    0.2587    1.1450 C   0  0  2  0  0  0  0  0  0  0  0  0
    3.7485   -1.2116    1.5052 C   0  0  0  0  0  0  0  0  0  0  0  0
    2.8015   -1.8805    2.3166 C   0  0  0  0  0  0  0  0  0  0  0  0
    2.9574   -3.2298    2.6672 C   0  0  0  0  0  0  0  0  0  0  0  0
    4.0610   -3.9469    2.2241 C   0  0  0  0  0  0  0  0  0  0  0  0
    5.0046   -3.3122    1.4302 C   0  0  0  0  0  0  0  0  0  0  0  0
    4.8650   -1.9643    1.0682 C   0  0  0  0  0  0  0  0  0  0  0  0
    6.1241   -1.2987    0.0792 Cl  0  0  0  0  0  0  0  0  0  0  0  0
    6.0635   -4.0254    1.0168 F   0  0  0  0  0  0  0  0  0  0  0  0
    1.3879   -1.1009    2.9467 Cl  0  0  0  0  0  0  0  0  0  0  0  0
    3.7150    0.4155   -0.2764 O   0  0  0  0  0  0  0  0  0  0  0  0
    2.8338    1.3169   -0.8126 C   0  0  0  0  0  0  0  0  0  0  0  0
    1.4844    0.9929   -0.9516 C   0  0  0  0  0  0  0  0  0  0  0  0
    0.6135    1.9148   -1.5339 C   0  0  0  0  0  0  0  0  0  0  0  0
    1.1717    3.1155   -1.9715 C   0  0  0  0  0  0  0  0  0  0  0  0
    2.4865    3.4423   -1.8747 N   0  0  0  0  0  0  0  0  0  0  0  0
    3.3013    2.5350   -1.3110 C   0  0  0  0  0  0  0  0  0  0  0  0
    4.6417    2.9003   -1.1835 N   0  0  0  0  0  0  0  0  0  0  0  0
   -0.8050    1.6472   -1.6860 C   0  0  0  0  0  0  0  0  0  0  0  0
   -1.7649    2.2091   -2.5610 C   0  0  0  0  0  0  0  0  0  0  0  0
   -2.9895    1.7104   -2.3780 N   0  0  0  0  0  0  0  0  0  0  0  0
   -2.8241    0.8178   -1.3831 N   0  0  0  0  0  0  0  0  0  0  0  0
   -1.5338    0.7487   -0.9334 C   0  0  0  0  0  0  0  0  0  0  0  0
   -3.9594    0.0525   -0.8826 C   0  0  0  0  0  0  0  0  0  0  0  0
   -4.5006   -0.9299   -1.9360 C   0  0  0  0  0  0  0  0  0  0  0  0
   -6.0122   -1.1211   -1.8249 C   0  0  0  0  0  0  0  0  0  0  0  0
   -6.4137   -1.1618   -0.4245 N   0  0  0  0  0  0  0  0  0  0  0  0
   -6.2022    0.1200    0.2530 C   0  0  0  0  0  0  0  0  0  0  0  0
   -5.0677    0.9580   -0.3395 C   0  0  0  0  0  0  0  0  0  0  0  0
    4.3007    2.2139    1.7197 H   0  0  0  0  0  0  0  0  0  0  0  0
    4.4905    0.9830    2.9801 H   0  0  0  0  0  0  0  0  0  0  0  0
    5.5729    1.0217    1.5735 H   0  0  0  0  0  0  0  0  0  0  0  0
    2.5553    0.5857    1.4353 H   0  0  0  0  0  0  0  0  0  0  0  0
    2.2182   -3.7263    3.2934 H   0  0  0  0  0  0  0  0  0  0  0  0
    4.1937   -4.9908    2.4905 H   0  0  0  0  0  0  0  0  0  0  0  0
    1.1329    0.0223   -0.6165 H   0  0  0  0  0  0  0  0  0  0  0  0
    0.5626    3.8931   -2.4257 H   0  0  0  0  0  0  0  0  0  0  0  0
    4.7779    3.7645   -1.6995 H   0  0  0  0  0  0  0  0  0  0  0  0
    5.2489    2.1469   -1.4900 H   0  0  0  0  0  0  0  0  0  0  0  0
   -1.6249    2.9606   -3.3276 H   0  0  0  0  0  0  0  0  0  0  0  0
   -1.2601    0.0860   -0.1245 H   0  0  0  0  0  0  0  0  0  0  0  0
   -3.5716   -0.5376   -0.0396 H   0  0  0  0  0  0  0  0  0  0  0  0
   -4.2659   -0.6067   -2.9575 H   0  0  0  0  0  0  0  0  0  0  0  0
   -3.9942   -1.8950   -1.8032 H   0  0  0  0  0  0  0  0  0  0  0  0
   -6.5484   -0.3246   -2.3561 H   0  0  0  0  0  0  0  0  0  0  0  0
   -6.2885   -2.0634   -2.3120 H   0  0  0  0  0  0  0  0  0  0  0  0
   -7.3959   -1.4276   -0.3478 H   0  0  0  0  0  0  0  0  0  0  0  0
   -7.1262    0.7091    0.2341 H   0  0  0  0  0  0  0  0  0  0  0  0
   -5.9863   -0.0929    1.3057 H   0  0  0  0  0  0  0  0  0  0  0  0
   -5.4652    1.5895   -1.1451 H   0  0  0  0  0  0  0  0  0  0  0  0
   -4.6744    1.6405    0.4239 H   0  0  0  0  0  0  0  0  0  0  0  0
  1  2  1  0
  2  3  1  0
  3  4  2  0
  4  5  1  0
  5  6  2  0
  6  7  1  0
  7  8  2  0
  8  9  1  0
  7 10  1  0
  4 11  1  0
  2 12  1  0
 12 13  1  0
 13 14  2  0
 14 15  1  0
 15 16  2  0
 16 17  1  0
 17 18  2  0
 18 19  1  0
 15 20  1  0
 20 21  1  0
 21 22  2  0
 22 23  1  0
 23 24  1  0
 23 25  1  0
 25 26  1  0
 26 27  1  0
 27 28  1  0
 28 29  1  0
 29 30  1  0
  8  3  1  0
 18 13  1  0
 24 20  2  0
 30 25  1  0
  1 31  1  0
  1 32  1  0
  1 33  1  0
  2 34  1  1
  5 35  1  0
  6 36  1  0
 14 37  1  0
 16 38  1  0
 19 39  1  0
 19 40  1  0
 21 41  1  0
 24 42  1  0
 25 43  1  0
 26 44  1  0
 26 45  1  0
 27 46  1  0
 27 47  1  0
 28 48  1  0
 29 49  1  0
 29 50  1  0
 30 51  1  0
 30 52  1  0
M  END
>  <energy_abs>  (176) 
27.979425842766197

>  <SMILES>  (176) 
C[C@H](c1c(ccc(c1Cl)F)Cl)Oc2cc(cnc2N)c3cnn(c3)C4CCNCC4

>  <cluster_no>  (176) 
176

>  <fda_drugs_id>  (176) 
KTEIFNKAUNYNJU-GFCCVEGCSA-N

>  <initial_conformation_id>  (176) 
114

>  <minimize_method>  (176) 
MMFF

$$$$

     RDKit          3D

 52 55  0  0  0  0  0  0  0  0999 V2000
    6.0829    0.1660    0.5434 C   0  0  0  0  0  0  0  0  0  0  0  0
    4.5703    0.3994    0.5535 C   0  0  2  0  0  0  0  0  0  0  0  0
    3.8390   -0.7566    1.2313 C   0  0  0  0  0  0  0  0  0  0  0  0
    3.3463   -0.6119    2.5499 C   0  0  0  0  0  0  0  0  0  0  0  0
    2.6511   -1.6472    3.1909 C   0  0  0  0  0  0  0  0  0  0  0  0
    2.4363   -2.8548    2.5393 C   0  0  0  0  0  0  0  0  0  0  0  0
    2.9283   -3.0272    1.2544 C   0  0  0  0  0  0  0  0  0  0  0  0
    3.6282   -2.0039    0.5997 C   0  0  0  0  0  0  0  0  0  0  0  0
    4.2035   -2.3597   -0.9950 Cl  0  0  0  0  0  0  0  0  0  0  0  0
    2.7128   -4.2048    0.6480 F   0  0  0  0  0  0  0  0  0  0  0  0
    3.5714    0.8333    3.4776 Cl  0  0  0  0  0  0  0  0  0  0  0  0
    4.1461    0.6135   -0.8097 O   0  0  0  0  0  0  0  0  0  0  0  0
    3.0686    1.4607   -0.8815 C   0  0  0  0  0  0  0  0  0  0  0  0
    1.7811    0.9273   -0.8639 C   0  0  0  0  0  0  0  0  0  0  0  0
    0.6809    1.7801   -0.9586 C   0  0  0  0  0  0  0  0  0  0  0  0
    0.9534    3.1403   -1.0832 C   0  0  0  0  0  0  0  0  0  0  0  0
    2.1987    3.6790   -1.1356 N   0  0  0  0  0  0  0  0  0  0  0  0
    3.2430    2.8391   -1.0544 C   0  0  0  0  0  0  0  0  0  0  0  0
    4.5274    3.3928   -1.1687 N   0  0  0  0  0  0  0  0  0  0  0  0
   -0.6827    1.2836   -0.9277 C   0  0  0  0  0  0  0  0  0  0  0  0
   -1.8948    1.9245   -0.5804 C   0  0  0  0  0  0  0  0  0  0  0  0
   -2.9560    1.1223   -0.6909 N   0  0  0  0  0  0  0  0  0  0  0  0
   -2.4338   -0.0436   -1.1202 N   0  0  0  0  0  0  0  0  0  0  0  0
   -1.0737    0.0058   -1.2731 C   0  0  0  0  0  0  0  0  0  0  0  0
   -3.2867   -1.2052   -1.3754 C   0  0  0  0  0  0  0  0  0  0  0  0
   -4.0382   -1.0713   -2.7031 C   0  0  0  0  0  0  0  0  0  0  0  0
   -5.1844   -0.0580   -2.6302 C   0  0  0  0  0  0  0  0  0  0  0  0
   -5.7934    0.0758   -1.3033 N   0  0  0  0  0  0  0  0  0  0  0  0
   -5.6969   -1.1607   -0.5368 C   0  0  0  0  0  0  0  0  0  0  0  0
   -4.2440   -1.5061   -0.2073 C   0  0  0  0  0  0  0  0  0  0  0  0
    6.3647   -0.6975   -0.0659 H   0  0  0  0  0  0  0  0  0  0  0  0
    6.5927    1.0302    0.1040 H   0  0  0  0  0  0  0  0  0  0  0  0
    6.4725    0.0119    1.5555 H   0  0  0  0  0  0  0  0  0  0  0  0
    4.4165    1.3349    1.1015 H   0  0  0  0  0  0  0  0  0  0  0  0
    2.2764   -1.5133    4.2045 H   0  0  0  0  0  0  0  0  0  0  0  0
    1.8973   -3.6624    3.0239 H   0  0  0  0  0  0  0  0  0  0  0  0
    1.6498   -0.1455   -0.7771 H   0  0  0  0  0  0  0  0  0  0  0  0
    0.1581    3.8754   -1.1682 H   0  0  0  0  0  0  0  0  0  0  0  0
    5.0641    3.1776   -0.3370 H   0  0  0  0  0  0  0  0  0  0  0  0
    4.9933    2.9359   -1.9493 H   0  0  0  0  0  0  0  0  0  0  0  0
   -2.0506    2.9422   -0.2456 H   0  0  0  0  0  0  0  0  0  0  0  0
   -0.5201   -0.8546   -1.6227 H   0  0  0  0  0  0  0  0  0  0  0  0
   -2.5911   -2.0512   -1.4602 H   0  0  0  0  0  0  0  0  0  0  0  0
   -4.4537   -2.0541   -2.9632 H   0  0  0  0  0  0  0  0  0  0  0  0
   -3.3556   -0.7961   -3.5157 H   0  0  0  0  0  0  0  0  0  0  0  0
   -5.9586   -0.3451   -3.3507 H   0  0  0  0  0  0  0  0  0  0  0  0
   -4.8298    0.9286   -2.9502 H   0  0  0  0  0  0  0  0  0  0  0  0
   -5.2580    0.7991   -0.8017 H   0  0  0  0  0  0  0  0  0  0  0  0
   -6.1717   -1.9821   -1.0893 H   0  0  0  0  0  0  0  0  0  0  0  0
   -6.2642   -1.0546    0.3950 H   0  0  0  0  0  0  0  0  0  0  0  0
   -4.1977   -2.5773    0.0270 H   0  0  0  0  0  0  0  0  0  0  0  0
   -3.9314   -0.9834    0.7055 H   0  0  0  0  0  0  0  0  0  0  0  0
  1  2  1  0
  2  3  1  0
  3  4  2  0
  4  5  1  0
  5  6  2  0
  6  7  1  0
  7  8  2  0
  8  9  1  0
  7 10  1  0
  4 11  1  0
  2 12  1  0
 12 13  1  0
 13 14  2  0
 14 15  1  0
 15 16  2  0
 16 17  1  0
 17 18  2  0
 18 19  1  0
 15 20  1  0
 20 21  1  0
 21 22  2  0
 22 23  1  0
 23 24  1  0
 23 25  1  0
 25 26  1  0
 26 27  1  0
 27 28  1  0
 28 29  1  0
 29 30  1  0
  8  3  1  0
 18 13  1  0
 24 20  2  0
 30 25  1  0
  1 31  1  0
  1 32  1  0
  1 33  1  0
  2 34  1  1
  5 35  1  0
  6 36  1  0
 14 37  1  0
 16 38  1  0
 19 39  1  0
 19 40  1  0
 21 41  1  0
 24 42  1  0
 25 43  1  0
 26 44  1  0
 26 45  1  0
 27 46  1  0
 27 47  1  0
 28 48  1  0
 29 49  1  0
 29 50  1  0
 30 51  1  0
 30 52  1  0
M  END
>  <energy_abs>  (177) 
39.471055330928266

>  <SMILES>  (177) 
C[C@H](c1c(ccc(c1Cl)F)Cl)Oc2cc(cnc2N)c3cnn(c3)C4CCNCC4

>  <cluster_no>  (177) 
177

>  <fda_drugs_id>  (177) 
KTEIFNKAUNYNJU-GFCCVEGCSA-N

>  <initial_conformation_id>  (177) 
113

>  <minimize_method>  (177) 
MMFF

$$$$

     RDKit          3D

 52 55  0  0  0  0  0  0  0  0999 V2000
    3.0138    0.7671    2.3186 C   0  0  0  0  0  0  0  0  0  0  0  0
    3.1927   -0.4161    1.3588 C   0  0  2  0  0  0  0  0  0  0  0  0
    4.4210   -1.2352    1.7598 C   0  0  0  0  0  0  0  0  0  0  0  0
    4.2684   -2.4411    2.4842 C   0  0  0  0  0  0  0  0  0  0  0  0
    5.3746   -3.2116    2.8687 C   0  0  0  0  0  0  0  0  0  0  0  0
    6.6620   -2.7965    2.5538 C   0  0  0  0  0  0  0  0  0  0  0  0
    6.8387   -1.6072    1.8641 C   0  0  0  0  0  0  0  0  0  0  0  0
    5.7447   -0.8240    1.4700 C   0  0  0  0  0  0  0  0  0  0  0  0
    6.1158    0.6600    0.6508 Cl  0  0  0  0  0  0  0  0  0  0  0  0
    8.0923   -1.2174    1.5885 F   0  0  0  0  0  0  0  0  0  0  0  0
    2.7207   -3.0457    2.9766 Cl  0  0  0  0  0  0  0  0  0  0  0  0
    3.3408    0.0096   -0.0021 O   0  0  0  0  0  0  0  0  0  0  0  0
    2.2640    0.4788   -0.7060 C   0  0  0  0  0  0  0  0  0  0  0  0
    0.9298    0.4267   -0.2982 C   0  0  0  0  0  0  0  0  0  0  0  0
   -0.0705    0.9646   -1.1152 C   0  0  0  0  0  0  0  0  0  0  0  0
    0.3275    1.5209   -2.3272 C   0  0  0  0  0  0  0  0  0  0  0  0
    1.6088    1.5723   -2.7597 N   0  0  0  0  0  0  0  0  0  0  0  0
    2.5548    1.0588   -1.9536 C   0  0  0  0  0  0  0  0  0  0  0  0
    3.8899    1.1279   -2.4019 N   0  0  0  0  0  0  0  0  0  0  0  0
   -1.4549    0.9695   -0.6867 C   0  0  0  0  0  0  0  0  0  0  0  0
   -2.0116    1.0657    0.6083 C   0  0  0  0  0  0  0  0  0  0  0  0
   -3.3454    1.0407    0.6012 N   0  0  0  0  0  0  0  0  0  0  0  0
   -3.6564    0.9340   -0.7053 N   0  0  0  0  0  0  0  0  0  0  0  0
   -2.5539    0.8764   -1.5156 C   0  0  0  0  0  0  0  0  0  0  0  0
   -5.0607    0.8726   -1.0969 C   0  0  0  0  0  0  0  0  0  0  0  0
   -5.4404   -0.4806   -1.7186 C   0  0  0  0  0  0  0  0  0  0  0  0
   -5.6302   -0.3740   -3.2265 C   0  0  0  0  0  0  0  0  0  0  0  0
   -6.6345    0.6162   -3.6194 N   0  0  0  0  0  0  0  0  0  0  0  0
   -6.7577    1.7555   -2.7070 C   0  0  0  0  0  0  0  0  0  0  0  0
   -5.4594    2.0649   -1.9748 C   0  0  0  0  0  0  0  0  0  0  0  0
    2.9159    0.4227    3.3547 H   0  0  0  0  0  0  0  0  0  0  0  0
    2.1222    1.3530    2.0738 H   0  0  0  0  0  0  0  0  0  0  0  0
    3.8567    1.4642    2.2709 H   0  0  0  0  0  0  0  0  0  0  0  0
    2.3136   -1.0620    1.4057 H   0  0  0  0  0  0  0  0  0  0  0  0
    5.2340   -4.1384    3.4209 H   0  0  0  0  0  0  0  0  0  0  0  0
    7.5267   -3.3815    2.8494 H   0  0  0  0  0  0  0  0  0  0  0  0
    0.6433   -0.0295    0.6430 H   0  0  0  0  0  0  0  0  0  0  0  0
   -0.3868    1.9748   -3.0102 H   0  0  0  0  0  0  0  0  0  0  0  0
    4.4250    1.6345   -1.6981 H   0  0  0  0  0  0  0  0  0  0  0  0
    4.2609    0.1821   -2.3885 H   0  0  0  0  0  0  0  0  0  0  0  0
   -1.5019    1.1615    1.5583 H   0  0  0  0  0  0  0  0  0  0  0  0
   -2.6483    0.7747   -2.5878 H   0  0  0  0  0  0  0  0  0  0  0  0
   -5.6249    0.9515   -0.1563 H   0  0  0  0  0  0  0  0  0  0  0  0
   -4.6996   -1.2556   -1.4873 H   0  0  0  0  0  0  0  0  0  0  0  0
   -6.3835   -0.8201   -1.2726 H   0  0  0  0  0  0  0  0  0  0  0  0
   -4.6791   -0.1214   -3.7103 H   0  0  0  0  0  0  0  0  0  0  0  0
   -5.9232   -1.3516   -3.6272 H   0  0  0  0  0  0  0  0  0  0  0  0
   -7.5515    0.1711   -3.7152 H   0  0  0  0  0  0  0  0  0  0  0  0
   -7.5474    1.5471   -1.9735 H   0  0  0  0  0  0  0  0  0  0  0  0
   -7.0799    2.6324   -3.2810 H   0  0  0  0  0  0  0  0  0  0  0  0
   -4.6770    2.3085   -2.7066 H   0  0  0  0  0  0  0  0  0  0  0  0
   -5.5809    2.9597   -1.3503 H   0  0  0  0  0  0  0  0  0  0  0  0
  1  2  1  0
  2  3  1  0
  3  4  2  0
  4  5  1  0
  5  6  2  0
  6  7  1  0
  7  8  2  0
  8  9  1  0
  7 10  1  0
  4 11  1  0
  2 12  1  0
 12 13  1  0
 13 14  2  0
 14 15  1  0
 15 16  2  0
 16 17  1  0
 17 18  2  0
 18 19  1  0
 15 20  1  0
 20 21  1  0
 21 22  2  0
 22 23  1  0
 23 24  1  0
 23 25  1  0
 25 26  1  0
 26 27  1  0
 27 28  1  0
 28 29  1  0
 29 30  1  0
  8  3  1  0
 18 13  1  0
 24 20  2  0
 30 25  1  0
  1 31  1  0
  1 32  1  0
  1 33  1  0
  2 34  1  6
  5 35  1  0
  6 36  1  0
 14 37  1  0
 16 38  1  0
 19 39  1  0
 19 40  1  0
 21 41  1  0
 24 42  1  0
 25 43  1  0
 26 44  1  0
 26 45  1  0
 27 46  1  0
 27 47  1  0
 28 48  1  0
 29 49  1  0
 29 50  1  0
 30 51  1  0
 30 52  1  0
M  END
>  <energy_abs>  (178) 
39.949624286289215

>  <SMILES>  (178) 
C[C@H](c1c(ccc(c1Cl)F)Cl)Oc2cc(cnc2N)c3cnn(c3)C4CCNCC4

>  <cluster_no>  (178) 
178

>  <fda_drugs_id>  (178) 
KTEIFNKAUNYNJU-GFCCVEGCSA-N

>  <initial_conformation_id>  (178) 
112

>  <minimize_method>  (178) 
MMFF

$$$$

     RDKit          3D

 52 55  0  0  0  0  0  0  0  0999 V2000
    3.0338    0.8286    3.1477 C   0  0  0  0  0  0  0  0  0  0  0  0
    3.1463    0.0548    1.8316 C   0  0  2  0  0  0  0  0  0  0  0  0
    4.3444   -0.8889    1.8294 C   0  0  0  0  0  0  0  0  0  0  0  0
    4.1565   -2.2787    2.0100 C   0  0  0  0  0  0  0  0  0  0  0  0
    5.2372   -3.1727    2.0024 C   0  0  0  0  0  0  0  0  0  0  0  0
    6.5334   -2.7057    1.8257 C   0  0  0  0  0  0  0  0  0  0  0  0
    6.7447   -1.3453    1.6676 C   0  0  0  0  0  0  0  0  0  0  0  0
    5.6758   -0.4371    1.6737 C   0  0  0  0  0  0  0  0  0  0  0  0
    6.0852    1.2357    1.4835 Cl  0  0  0  0  0  0  0  0  0  0  0  0
    8.0070   -0.9168    1.5075 F   0  0  0  0  0  0  0  0  0  0  0  0
    2.5975   -2.9857    2.2738 Cl  0  0  0  0  0  0  0  0  0  0  0  0
    3.2343    0.9995    0.7492 O   0  0  0  0  0  0  0  0  0  0  0  0
    2.3906    0.7253   -0.2966 C   0  0  0  0  0  0  0  0  0  0  0  0
    1.0034    0.7654   -0.1372 C   0  0  0  0  0  0  0  0  0  0  0  0
    0.1766    0.5126   -1.2331 C   0  0  0  0  0  0  0  0  0  0  0  0
    0.8075    0.2444   -2.4445 C   0  0  0  0  0  0  0  0  0  0  0  0
    2.1522    0.2356   -2.6327 N   0  0  0  0  0  0  0  0  0  0  0  0
    2.9300    0.4862   -1.5667 C   0  0  0  0  0  0  0  0  0  0  0  0
    4.3187    0.5359   -1.7722 N   0  0  0  0  0  0  0  0  0  0  0  0
   -1.2669    0.5286   -1.0977 C   0  0  0  0  0  0  0  0  0  0  0  0
   -2.0910    0.3546    0.0404 C   0  0  0  0  0  0  0  0  0  0  0  0
   -3.3920    0.4719   -0.2352 N   0  0  0  0  0  0  0  0  0  0  0  0
   -3.4137    0.7240   -1.5589 N   0  0  0  0  0  0  0  0  0  0  0  0
   -2.1651    0.7716   -2.1186 C   0  0  0  0  0  0  0  0  0  0  0  0
   -4.6812    0.9559   -2.2436 C   0  0  0  0  0  0  0  0  0  0  0  0
   -5.5789   -0.2915   -2.2410 C   0  0  0  0  0  0  0  0  0  0  0  0
   -6.9746    0.0144   -1.7124 C   0  0  0  0  0  0  0  0  0  0  0  0
   -7.5745    1.1516   -2.4041 N   0  0  0  0  0  0  0  0  0  0  0  0
   -6.7560    2.3637   -2.3647 C   0  0  0  0  0  0  0  0  0  0  0  0
   -5.3963    2.1949   -1.6945 C   0  0  0  0  0  0  0  0  0  0  0  0
    2.1240    1.4429    3.1464 H   0  0  0  0  0  0  0  0  0  0  0  0
    2.9863    0.1502    4.0062 H   0  0  0  0  0  0  0  0  0  0  0  0
    3.8712    1.5181    3.2998 H   0  0  0  0  0  0  0  0  0  0  0  0
    2.2204   -0.5178    1.7370 H   0  0  0  0  0  0  0  0  0  0  0  0
    5.0710   -4.2383    2.1396 H   0  0  0  0  0  0  0  0  0  0  0  0
    7.3782   -3.3895    1.8166 H   0  0  0  0  0  0  0  0  0  0  0  0
    0.5814    1.0135    0.8339 H   0  0  0  0  0  0  0  0  0  0  0  0
    0.2411    0.0190   -3.3454 H   0  0  0  0  0  0  0  0  0  0  0  0
    4.7663   -0.0902   -1.1101 H   0  0  0  0  0  0  0  0  0  0  0  0
    4.6295    1.4736   -1.5215 H   0  0  0  0  0  0  0  0  0  0  0  0
   -1.7977    0.1537    1.0619 H   0  0  0  0  0  0  0  0  0  0  0  0
   -2.0298    0.9989   -3.1669 H   0  0  0  0  0  0  0  0  0  0  0  0
   -4.4145    1.1643   -3.2903 H   0  0  0  0  0  0  0  0  0  0  0  0
   -5.6602   -0.6683   -3.2689 H   0  0  0  0  0  0  0  0  0  0  0  0
   -5.1439   -1.1102   -1.6566 H   0  0  0  0  0  0  0  0  0  0  0  0
   -6.9469    0.2032   -0.6307 H   0  0  0  0  0  0  0  0  0  0  0  0
   -7.6202   -0.8635   -1.8483 H   0  0  0  0  0  0  0  0  0  0  0  0
   -7.7685    0.9043   -3.3725 H   0  0  0  0  0  0  0  0  0  0  0  0
   -6.6056    2.7175   -3.3933 H   0  0  0  0  0  0  0  0  0  0  0  0
   -7.3169    3.1512   -1.8496 H   0  0  0  0  0  0  0  0  0  0  0  0
   -5.5294    2.1188   -0.6048 H   0  0  0  0  0  0  0  0  0  0  0  0
   -4.7852    3.0929   -1.8635 H   0  0  0  0  0  0  0  0  0  0  0  0
  1  2  1  0
  2  3  1  0
  3  4  2  0
  4  5  1  0
  5  6  2  0
  6  7  1  0
  7  8  2  0
  8  9  1  0
  7 10  1  0
  4 11  1  0
  2 12  1  0
 12 13  1  0
 13 14  2  0
 14 15  1  0
 15 16  2  0
 16 17  1  0
 17 18  2  0
 18 19  1  0
 15 20  1  0
 20 21  1  0
 21 22  2  0
 22 23  1  0
 23 24  1  0
 23 25  1  0
 25 26  1  0
 26 27  1  0
 27 28  1  0
 28 29  1  0
 29 30  1  0
  8  3  1  0
 18 13  1  0
 24 20  2  0
 30 25  1  0
  1 31  1  0
  1 32  1  0
  1 33  1  0
  2 34  1  6
  5 35  1  0
  6 36  1  0
 14 37  1  0
 16 38  1  0
 19 39  1  0
 19 40  1  0
 21 41  1  0
 24 42  1  0
 25 43  1  0
 26 44  1  0
 26 45  1  0
 27 46  1  0
 27 47  1  0
 28 48  1  0
 29 49  1  0
 29 50  1  0
 30 51  1  0
 30 52  1  0
M  END
>  <energy_abs>  (179) 
40.971139499311

>  <SMILES>  (179) 
C[C@H](c1c(ccc(c1Cl)F)Cl)Oc2cc(cnc2N)c3cnn(c3)C4CCNCC4

>  <cluster_no>  (179) 
179

>  <fda_drugs_id>  (179) 
KTEIFNKAUNYNJU-GFCCVEGCSA-N

>  <initial_conformation_id>  (179) 
111

>  <minimize_method>  (179) 
MMFF

$$$$

     RDKit          3D

 52 55  0  0  0  0  0  0  0  0999 V2000
    2.5160   -2.3599    0.9664 C   0  0  0  0  0  0  0  0  0  0  0  0
    3.6106   -1.4239    0.4273 C   0  0  2  0  0  0  0  0  0  0  0  0
    4.6372   -1.0924    1.5103 C   0  0  0  0  0  0  0  0  0  0  0  0
    5.9450   -1.6233    1.4562 C   0  0  0  0  0  0  0  0  0  0  0  0
    6.8946   -1.3326    2.4486 C   0  0  0  0  0  0  0  0  0  0  0  0
    6.5629   -0.5102    3.5239 C   0  0  0  0  0  0  0  0  0  0  0  0
    5.2835    0.0354    3.5947 C   0  0  0  0  0  0  0  0  0  0  0  0
    4.3274   -0.2408    2.6068 C   0  0  0  0  0  0  0  0  0  0  0  0
    2.7633    0.4992    2.8262 Cl  0  0  0  0  0  0  0  0  0  0  0  0
    4.9843    0.8271    4.6395 F   0  0  0  0  0  0  0  0  0  0  0  0
    6.4828   -2.6725    0.1769 Cl  0  0  0  0  0  0  0  0  0  0  0  0
    3.1247   -0.1673   -0.0819 O   0  0  0  0  0  0  0  0  0  0  0  0
    2.2836   -0.2819   -1.1563 C   0  0  0  0  0  0  0  0  0  0  0  0
    0.9193   -0.0864   -0.9247 C   0  0  0  0  0  0  0  0  0  0  0  0
    0.0258   -0.1223   -1.9924 C   0  0  0  0  0  0  0  0  0  0  0  0
    0.5686   -0.3586   -3.2526 C   0  0  0  0  0  0  0  0  0  0  0  0
    1.8887   -0.5130   -3.5064 N   0  0  0  0  0  0  0  0  0  0  0  0
    2.7398   -0.4336   -2.4682 C   0  0  0  0  0  0  0  0  0  0  0  0
    4.1029   -0.5078   -2.7660 N   0  0  0  0  0  0  0  0  0  0  0  0
   -1.3935    0.1102   -1.8152 C   0  0  0  0  0  0  0  0  0  0  0  0
   -2.5042   -0.2479   -2.6164 C   0  0  0  0  0  0  0  0  0  0  0  0
   -3.6622    0.2195   -2.1374 N   0  0  0  0  0  0  0  0  0  0  0  0
   -3.3071    0.8886   -1.0257 N   0  0  0  0  0  0  0  0  0  0  0  0
   -1.9554    0.8451   -0.7873 C   0  0  0  0  0  0  0  0  0  0  0  0
   -4.2975    1.5947   -0.2090 C   0  0  0  0  0  0  0  0  0  0  0  0
   -5.5939    0.8001    0.0276 C   0  0  0  0  0  0  0  0  0  0  0  0
   -6.6048    0.9401   -1.1115 C   0  0  0  0  0  0  0  0  0  0  0  0
   -6.8578    2.3465   -1.4430 N   0  0  0  0  0  0  0  0  0  0  0  0
   -5.6187    2.9965   -1.8709 C   0  0  0  0  0  0  0  0  0  0  0  0
   -4.5811    3.0041   -0.7511 C   0  0  0  0  0  0  0  0  0  0  0  0
    2.9527   -3.2664    1.4058 H   0  0  0  0  0  0  0  0  0  0  0  0
    1.8343   -2.6753    0.1638 H   0  0  0  0  0  0  0  0  0  0  0  0
    1.8852   -1.8783    1.7257 H   0  0  0  0  0  0  0  0  0  0  0  0
    4.0958   -1.9486   -0.4022 H   0  0  0  0  0  0  0  0  0  0  0  0
    7.9029   -1.7494    2.3850 H   0  0  0  0  0  0  0  0  0  0  0  0
    7.2866   -0.2845    4.3036 H   0  0  0  0  0  0  0  0  0  0  0  0
    0.5784    0.0921    0.0916 H   0  0  0  0  0  0  0  0  0  0  0  0
   -0.0534   -0.4065   -4.1402 H   0  0  0  0  0  0  0  0  0  0  0  0
    4.5819    0.2696   -2.3291 H   0  0  0  0  0  0  0  0  0  0  0  0
    4.5101   -1.3614   -2.4023 H   0  0  0  0  0  0  0  0  0  0  0  0
   -2.5245   -0.8267   -3.5310 H   0  0  0  0  0  0  0  0  0  0  0  0
   -1.5227    1.3605    0.0618 H   0  0  0  0  0  0  0  0  0  0  0  0
   -3.8086    1.7079    0.7695 H   0  0  0  0  0  0  0  0  0  0  0  0
   -5.3776   -0.2599    0.2037 H   0  0  0  0  0  0  0  0  0  0  0  0
   -6.0622    1.1796    0.9442 H   0  0  0  0  0  0  0  0  0  0  0  0
   -7.5543    0.4785   -0.8075 H   0  0  0  0  0  0  0  0  0  0  0  0
   -6.2797    0.3953   -2.0046 H   0  0  0  0  0  0  0  0  0  0  0  0
   -7.2415    2.8283   -0.6280 H   0  0  0  0  0  0  0  0  0  0  0  0
   -5.2254    2.5095   -2.7681 H   0  0  0  0  0  0  0  0  0  0  0  0
   -5.8465    4.0286   -2.1567 H   0  0  0  0  0  0  0  0  0  0  0  0
   -4.9584    3.6269    0.0700 H   0  0  0  0  0  0  0  0  0  0  0  0
   -3.6588    3.4833   -1.1048 H   0  0  0  0  0  0  0  0  0  0  0  0
  1  2  1  0
  2  3  1  0
  3  4  2  0
  4  5  1  0
  5  6  2  0
  6  7  1  0
  7  8  2  0
  8  9  1  0
  7 10  1  0
  4 11  1  0
  2 12  1  0
 12 13  1  0
 13 14  2  0
 14 15  1  0
 15 16  2  0
 16 17  1  0
 17 18  2  0
 18 19  1  0
 15 20  1  0
 20 21  1  0
 21 22  2  0
 22 23  1  0
 23 24  1  0
 23 25  1  0
 25 26  1  0
 26 27  1  0
 27 28  1  0
 28 29  1  0
 29 30  1  0
  8  3  1  0
 18 13  1  0
 24 20  2  0
 30 25  1  0
  1 31  1  0
  1 32  1  0
  1 33  1  0
  2 34  1  6
  5 35  1  0
  6 36  1  0
 14 37  1  0
 16 38  1  0
 19 39  1  0
 19 40  1  0
 21 41  1  0
 24 42  1  0
 25 43  1  0
 26 44  1  0
 26 45  1  0
 27 46  1  0
 27 47  1  0
 28 48  1  0
 29 49  1  0
 29 50  1  0
 30 51  1  0
 30 52  1  0
M  END
>  <energy_abs>  (180) 
37.53354949245665

>  <SMILES>  (180) 
C[C@H](c1c(ccc(c1Cl)F)Cl)Oc2cc(cnc2N)c3cnn(c3)C4CCNCC4

>  <cluster_no>  (180) 
180

>  <fda_drugs_id>  (180) 
KTEIFNKAUNYNJU-GFCCVEGCSA-N

>  <initial_conformation_id>  (180) 
110

>  <minimize_method>  (180) 
MMFF

$$$$

     RDKit          3D

 52 55  0  0  0  0  0  0  0  0999 V2000
    5.2761   -2.7460    0.5418 C   0  0  0  0  0  0  0  0  0  0  0  0
    4.2515   -1.7154    0.0603 C   0  0  2  0  0  0  0  0  0  0  0  0
    4.0044   -0.6523    1.1225 C   0  0  0  0  0  0  0  0  0  0  0  0
    4.6075    0.6241    1.0070 C   0  0  0  0  0  0  0  0  0  0  0  0
    4.3997    1.6220    1.9707 C   0  0  0  0  0  0  0  0  0  0  0  0
    3.5944    1.3735    3.0779 C   0  0  0  0  0  0  0  0  0  0  0  0
    2.9946    0.1292    3.2109 C   0  0  0  0  0  0  0  0  0  0  0  0
    3.1959   -0.8824    2.2584 C   0  0  0  0  0  0  0  0  0  0  0  0
    2.4225   -2.4030    2.5740 Cl  0  0  0  0  0  0  0  0  0  0  0  0
    2.1917   -0.0742    4.2627 F   0  0  0  0  0  0  0  0  0  0  0  0
    5.6587    1.0469   -0.3004 Cl  0  0  0  0  0  0  0  0  0  0  0  0
    3.0533   -2.4235   -0.3215 O   0  0  0  0  0  0  0  0  0  0  0  0
    2.3785   -1.8073   -1.3397 C   0  0  0  0  0  0  0  0  0  0  0  0
    1.2621   -1.0343   -1.0201 C   0  0  0  0  0  0  0  0  0  0  0  0
    0.5260   -0.4264   -2.0390 C   0  0  0  0  0  0  0  0  0  0  0  0
    0.9741   -0.6466   -3.3409 C   0  0  0  0  0  0  0  0  0  0  0  0
    2.0363   -1.4229   -3.6777 N   0  0  0  0  0  0  0  0  0  0  0  0
    2.7082   -2.0231   -2.6837 C   0  0  0  0  0  0  0  0  0  0  0  0
    3.7630   -2.8735   -3.0495 N   0  0  0  0  0  0  0  0  0  0  0  0
   -0.6661    0.3652   -1.7759 C   0  0  0  0  0  0  0  0  0  0  0  0
   -1.6514    0.8698   -2.6586 C   0  0  0  0  0  0  0  0  0  0  0  0
   -2.6315    1.5208   -2.0276 N   0  0  0  0  0  0  0  0  0  0  0  0
   -2.2955    1.4331   -0.7286 N   0  0  0  0  0  0  0  0  0  0  0  0
   -1.1149    0.7627   -0.5292 C   0  0  0  0  0  0  0  0  0  0  0  0
   -3.1612    1.9722    0.3199 C   0  0  0  0  0  0  0  0  0  0  0  0
   -3.8097    3.3169   -0.0355 C   0  0  0  0  0  0  0  0  0  0  0  0
   -5.0653    3.1669   -0.8931 C   0  0  0  0  0  0  0  0  0  0  0  0
   -6.0099    2.2228   -0.2924 N   0  0  0  0  0  0  0  0  0  0  0  0
   -5.4043    0.8960   -0.1706 C   0  0  0  0  0  0  0  0  0  0  0  0
   -4.2035    0.9416    0.7666 C   0  0  0  0  0  0  0  0  0  0  0  0
    6.2476   -2.2789    0.7438 H   0  0  0  0  0  0  0  0  0  0  0  0
    5.4154   -3.5244   -0.2127 H   0  0  0  0  0  0  0  0  0  0  0  0
    4.9514   -3.2549    1.4567 H   0  0  0  0  0  0  0  0  0  0  0  0
    4.6797   -1.2664   -0.8405 H   0  0  0  0  0  0  0  0  0  0  0  0
    4.8834    2.5896    1.8677 H   0  0  0  0  0  0  0  0  0  0  0  0
    3.4263    2.1400    3.8303 H   0  0  0  0  0  0  0  0  0  0  0  0
    0.9684   -0.9395    0.0194 H   0  0  0  0  0  0  0  0  0  0  0  0
    0.4778   -0.2064   -4.1993 H   0  0  0  0  0  0  0  0  0  0  0  0
    3.6247   -3.7689   -2.5867 H   0  0  0  0  0  0  0  0  0  0  0  0
    4.6441   -2.4904   -2.7295 H   0  0  0  0  0  0  0  0  0  0  0  0
   -1.7065    0.7797   -3.7387 H   0  0  0  0  0  0  0  0  0  0  0  0
   -0.7271    0.6169    0.4694 H   0  0  0  0  0  0  0  0  0  0  0  0
   -2.4831    2.1535    1.1646 H   0  0  0  0  0  0  0  0  0  0  0  0
   -3.0913    3.9734   -0.5404 H   0  0  0  0  0  0  0  0  0  0  0  0
   -4.0898    3.8208    0.8989 H   0  0  0  0  0  0  0  0  0  0  0  0
   -4.8233    2.8626   -1.9166 H   0  0  0  0  0  0  0  0  0  0  0  0
   -5.5536    4.1431   -0.9740 H   0  0  0  0  0  0  0  0  0  0  0  0
   -6.8263    2.1530   -0.9038 H   0  0  0  0  0  0  0  0  0  0  0  0
   -6.1500    0.2079    0.2444 H   0  0  0  0  0  0  0  0  0  0  0  0
   -5.1271    0.5032   -1.1568 H   0  0  0  0  0  0  0  0  0  0  0  0
   -4.5518    1.2108    1.7722 H   0  0  0  0  0  0  0  0  0  0  0  0
   -3.7608   -0.0580    0.8455 H   0  0  0  0  0  0  0  0  0  0  0  0
  1  2  1  0
  2  3  1  0
  3  4  2  0
  4  5  1  0
  5  6  2  0
  6  7  1  0
  7  8  2  0
  8  9  1  0
  7 10  1  0
  4 11  1  0
  2 12  1  0
 12 13  1  0
 13 14  2  0
 14 15  1  0
 15 16  2  0
 16 17  1  0
 17 18  2  0
 18 19  1  0
 15 20  1  0
 20 21  1  0
 21 22  2  0
 22 23  1  0
 23 24  1  0
 23 25  1  0
 25 26  1  0
 26 27  1  0
 27 28  1  0
 28 29  1  0
 29 30  1  0
  8  3  1  0
 18 13  1  0
 24 20  2  0
 30 25  1  0
  1 31  1  0
  1 32  1  0
  1 33  1  0
  2 34  1  6
  5 35  1  0
  6 36  1  0
 14 37  1  0
 16 38  1  0
 19 39  1  0
 19 40  1  0
 21 41  1  0
 24 42  1  0
 25 43  1  0
 26 44  1  0
 26 45  1  0
 27 46  1  0
 27 47  1  0
 28 48  1  0
 29 49  1  0
 29 50  1  0
 30 51  1  0
 30 52  1  0
M  END
>  <energy_abs>  (181) 
32.290797212227304

>  <SMILES>  (181) 
C[C@H](c1c(ccc(c1Cl)F)Cl)Oc2cc(cnc2N)c3cnn(c3)C4CCNCC4

>  <cluster_no>  (181) 
181

>  <fda_drugs_id>  (181) 
KTEIFNKAUNYNJU-GFCCVEGCSA-N

>  <initial_conformation_id>  (181) 
109

>  <minimize_method>  (181) 
MMFF

$$$$

     RDKit          3D

 52 55  0  0  0  0  0  0  0  0999 V2000
    3.2503    1.0375    1.7187 C   0  0  0  0  0  0  0  0  0  0  0  0
    3.2273   -0.4219    1.2566 C   0  0  2  0  0  0  0  0  0  0  0  0
    4.4201   -1.1832    1.8361 C   0  0  0  0  0  0  0  0  0  0  0  0
    4.2501   -2.0236    2.9623 C   0  0  0  0  0  0  0  0  0  0  0  0
    5.3222   -2.7408    3.5127 C   0  0  0  0  0  0  0  0  0  0  0  0
    6.5937   -2.6305    2.9650 C   0  0  0  0  0  0  0  0  0  0  0  0
    6.7904   -1.7941    1.8765 C   0  0  0  0  0  0  0  0  0  0  0  0
    5.7305   -1.0688    1.3133 C   0  0  0  0  0  0  0  0  0  0  0  0
    6.1304   -0.0276   -0.0150 Cl  0  0  0  0  0  0  0  0  0  0  0  0
    8.0318   -1.6890    1.3779 F   0  0  0  0  0  0  0  0  0  0  0  0
    2.7259   -2.2141    3.7641 Cl  0  0  0  0  0  0  0  0  0  0  0  0
    3.2591   -0.5227   -0.1710 O   0  0  0  0  0  0  0  0  0  0  0  0
    2.1322   -0.2979   -0.9153 C   0  0  0  0  0  0  0  0  0  0  0  0
    0.8447   -0.0873   -0.4200 C   0  0  0  0  0  0  0  0  0  0  0  0
   -0.2176    0.1307   -1.3048 C   0  0  0  0  0  0  0  0  0  0  0  0
    0.0766    0.1178   -2.6642 C   0  0  0  0  0  0  0  0  0  0  0  0
    1.3111   -0.0867   -3.1792 N   0  0  0  0  0  0  0  0  0  0  0  0
    2.3164   -0.2900   -2.3108 C   0  0  0  0  0  0  0  0  0  0  0  0
    3.5999   -0.5015   -2.8522 N   0  0  0  0  0  0  0  0  0  0  0  0
   -1.5646    0.3503   -0.8120 C   0  0  0  0  0  0  0  0  0  0  0  0
   -2.1938   -0.0729    0.3808 C   0  0  0  0  0  0  0  0  0  0  0  0
   -3.4549    0.3520    0.4806 N   0  0  0  0  0  0  0  0  0  0  0  0
   -3.6470    1.0564   -0.6515 N   0  0  0  0  0  0  0  0  0  0  0  0
   -2.5409    1.0817   -1.4571 C   0  0  0  0  0  0  0  0  0  0  0  0
   -4.9498    1.6683   -0.8985 C   0  0  0  0  0  0  0  0  0  0  0  0
   -5.6887    1.0110   -2.0752 C   0  0  0  0  0  0  0  0  0  0  0  0
   -5.5708    1.8360   -3.3509 C   0  0  0  0  0  0  0  0  0  0  0  0
   -6.0228    3.2177   -3.2072 N   0  0  0  0  0  0  0  0  0  0  0  0
   -6.0242    3.7313   -1.8400 C   0  0  0  0  0  0  0  0  0  0  0  0
   -4.8526    3.1944   -1.0308 C   0  0  0  0  0  0  0  0  0  0  0  0
    3.2685    1.1077    2.8114 H   0  0  0  0  0  0  0  0  0  0  0  0
    2.3701    1.5801    1.3599 H   0  0  0  0  0  0  0  0  0  0  0  0
    4.1187    1.5770    1.3281 H   0  0  0  0  0  0  0  0  0  0  0  0
    2.3103   -0.9009    1.6033 H   0  0  0  0  0  0  0  0  0  0  0  0
    5.1688   -3.3855    4.3763 H   0  0  0  0  0  0  0  0  0  0  0  0
    7.4323   -3.1793    3.3827 H   0  0  0  0  0  0  0  0  0  0  0  0
    0.6460   -0.0744    0.6448 H   0  0  0  0  0  0  0  0  0  0  0  0
   -0.6931    0.2647   -3.4168 H   0  0  0  0  0  0  0  0  0  0  0  0
    4.2218    0.1954   -2.4477 H   0  0  0  0  0  0  0  0  0  0  0  0
    3.9353   -1.3958   -2.5043 H   0  0  0  0  0  0  0  0  0  0  0  0
   -1.7886   -0.6783    1.1813 H   0  0  0  0  0  0  0  0  0  0  0  0
   -2.5409    1.6226   -2.3930 H   0  0  0  0  0  0  0  0  0  0  0  0
   -5.5437    1.4524    0.0016 H   0  0  0  0  0  0  0  0  0  0  0  0
   -6.7533    0.9226   -1.8185 H   0  0  0  0  0  0  0  0  0  0  0  0
   -5.3322   -0.0107   -2.2537 H   0  0  0  0  0  0  0  0  0  0  0  0
   -4.5296    1.8477   -3.6906 H   0  0  0  0  0  0  0  0  0  0  0  0
   -6.1439    1.3549   -4.1516 H   0  0  0  0  0  0  0  0  0  0  0  0
   -6.9483    3.3376   -3.6202 H   0  0  0  0  0  0  0  0  0  0  0  0
   -5.9784    4.8249   -1.8761 H   0  0  0  0  0  0  0  0  0  0  0  0
   -6.9680    3.4688   -1.3463 H   0  0  0  0  0  0  0  0  0  0  0  0
   -4.8457    3.6487   -0.0323 H   0  0  0  0  0  0  0  0  0  0  0  0
   -3.9141    3.5025   -1.5091 H   0  0  0  0  0  0  0  0  0  0  0  0
  1  2  1  0
  2  3  1  0
  3  4  2  0
  4  5  1  0
  5  6  2  0
  6  7  1  0
  7  8  2  0
  8  9  1  0
  7 10  1  0
  4 11  1  0
  2 12  1  0
 12 13  1  0
 13 14  2  0
 14 15  1  0
 15 16  2  0
 16 17  1  0
 17 18  2  0
 18 19  1  0
 15 20  1  0
 20 21  1  0
 21 22  2  0
 22 23  1  0
 23 24  1  0
 23 25  1  0
 25 26  1  0
 26 27  1  0
 27 28  1  0
 28 29  1  0
 29 30  1  0
  8  3  1  0
 18 13  1  0
 24 20  2  0
 30 25  1  0
  1 31  1  0
  1 32  1  0
  1 33  1  0
  2 34  1  1
  5 35  1  0
  6 36  1  0
 14 37  1  0
 16 38  1  0
 19 39  1  0
 19 40  1  0
 21 41  1  0
 24 42  1  0
 25 43  1  0
 26 44  1  0
 26 45  1  0
 27 46  1  0
 27 47  1  0
 28 48  1  0
 29 49  1  0
 29 50  1  0
 30 51  1  0
 30 52  1  0
M  END
>  <energy_abs>  (182) 
39.610147455316486

>  <SMILES>  (182) 
C[C@H](c1c(ccc(c1Cl)F)Cl)Oc2cc(cnc2N)c3cnn(c3)C4CCNCC4

>  <cluster_no>  (182) 
182

>  <fda_drugs_id>  (182) 
KTEIFNKAUNYNJU-GFCCVEGCSA-N

>  <initial_conformation_id>  (182) 
107

>  <minimize_method>  (182) 
MMFF

$$$$

     RDKit          3D

 52 55  0  0  0  0  0  0  0  0999 V2000
    2.1924   -0.6034    2.3316 C   0  0  0  0  0  0  0  0  0  0  0  0
    3.0476   -1.3032    1.2668 C   0  0  2  0  0  0  0  0  0  0  0  0
    4.4847   -1.5227    1.7383 C   0  0  0  0  0  0  0  0  0  0  0  0
    4.9784   -2.8285    1.9793 C   0  0  0  0  0  0  0  0  0  0  0  0
    6.2862   -3.0465    2.4370 C   0  0  0  0  0  0  0  0  0  0  0  0
    7.1412   -1.9744    2.6561 C   0  0  0  0  0  0  0  0  0  0  0  0
    6.6890   -0.6862    2.4056 C   0  0  0  0  0  0  0  0  0  0  0  0
    5.3817   -0.4470    1.9534 C   0  0  0  0  0  0  0  0  0  0  0  0
    4.9560    1.2080    1.6556 Cl  0  0  0  0  0  0  0  0  0  0  0  0
    7.5302    0.3348    2.6342 F   0  0  0  0  0  0  0  0  0  0  0  0
    4.0247   -4.2540    1.7261 Cl  0  0  0  0  0  0  0  0  0  0  0  0
    3.0993   -0.5796    0.0256 O   0  0  0  0  0  0  0  0  0  0  0  0
    1.9609   -0.7233   -0.7232 C   0  0  0  0  0  0  0  0  0  0  0  0
    1.0421    0.3251   -0.7174 C   0  0  0  0  0  0  0  0  0  0  0  0
   -0.1188    0.2241   -1.4820 C   0  0  0  0  0  0  0  0  0  0  0  0
   -0.2802   -0.9366   -2.2324 C   0  0  0  0  0  0  0  0  0  0  0  0
    0.6198   -1.9521   -2.2848 N   0  0  0  0  0  0  0  0  0  0  0  0
    1.7446   -1.8273   -1.5591 C   0  0  0  0  0  0  0  0  0  0  0  0
    2.6999   -2.8474   -1.6821 N   0  0  0  0  0  0  0  0  0  0  0  0
   -1.0870    1.3008   -1.5035 C   0  0  0  0  0  0  0  0  0  0  0  0
   -0.8974    2.7000   -1.4340 C   0  0  0  0  0  0  0  0  0  0  0  0
   -2.0463    3.3788   -1.4781 N   0  0  0  0  0  0  0  0  0  0  0  0
   -2.9817    2.4154   -1.5671 N   0  0  0  0  0  0  0  0  0  0  0  0
   -2.4558    1.1507   -1.5863 C   0  0  0  0  0  0  0  0  0  0  0  0
   -4.3871    2.7983   -1.6145 C   0  0  0  0  0  0  0  0  0  0  0  0
   -5.0488    2.3770   -2.9311 C   0  0  0  0  0  0  0  0  0  0  0  0
   -6.5480    2.6617   -2.8686 C   0  0  0  0  0  0  0  0  0  0  0  0
   -7.2341    2.0515   -1.7231 N   0  0  0  0  0  0  0  0  0  0  0  0
   -6.3395    1.4175   -0.7574 C   0  0  0  0  0  0  0  0  0  0  0  0
   -5.1691    2.3208   -0.3762 C   0  0  0  0  0  0  0  0  0  0  0  0
    1.1336   -0.6429    2.0541 H   0  0  0  0  0  0  0  0  0  0  0  0
    2.2946   -1.0930    3.3080 H   0  0  0  0  0  0  0  0  0  0  0  0
    2.4306    0.4565    2.4473 H   0  0  0  0  0  0  0  0  0  0  0  0
    2.5622   -2.2666    1.0878 H   0  0  0  0  0  0  0  0  0  0  0  0
    6.6452   -4.0576    2.6232 H   0  0  0  0  0  0  0  0  0  0  0  0
    8.1554   -2.1318    3.0131 H   0  0  0  0  0  0  0  0  0  0  0  0
    1.2403    1.2038   -0.1098 H   0  0  0  0  0  0  0  0  0  0  0  0
   -1.1544   -1.0888   -2.8604 H   0  0  0  0  0  0  0  0  0  0  0  0
    3.5894   -2.4199   -1.9267 H   0  0  0  0  0  0  0  0  0  0  0  0
    2.8227   -3.3231   -0.7954 H   0  0  0  0  0  0  0  0  0  0  0  0
    0.0295    3.2539   -1.3640 H   0  0  0  0  0  0  0  0  0  0  0  0
   -3.0910    0.2762   -1.6440 H   0  0  0  0  0  0  0  0  0  0  0  0
   -4.3886    3.8978   -1.5872 H   0  0  0  0  0  0  0  0  0  0  0  0
   -4.5983    2.9229   -3.7701 H   0  0  0  0  0  0  0  0  0  0  0  0
   -4.8848    1.3109   -3.1334 H   0  0  0  0  0  0  0  0  0  0  0  0
   -6.7007    3.7471   -2.8273 H   0  0  0  0  0  0  0  0  0  0  0  0
   -7.0295    2.3112   -3.7872 H   0  0  0  0  0  0  0  0  0  0  0  0
   -7.7929    2.7741   -1.2601 H   0  0  0  0  0  0  0  0  0  0  0  0
   -5.9647    0.4700   -1.1668 H   0  0  0  0  0  0  0  0  0  0  0  0
   -6.9121    1.1500    0.1365 H   0  0  0  0  0  0  0  0  0  0  0  0
   -4.5235    1.7979    0.3430 H   0  0  0  0  0  0  0  0  0  0  0  0
   -5.5596    3.2025    0.1521 H   0  0  0  0  0  0  0  0  0  0  0  0
  1  2  1  0
  2  3  1  0
  3  4  2  0
  4  5  1  0
  5  6  2  0
  6  7  1  0
  7  8  2  0
  8  9  1  0
  7 10  1  0
  4 11  1  0
  2 12  1  0
 12 13  1  0
 13 14  2  0
 14 15  1  0
 15 16  2  0
 16 17  1  0
 17 18  2  0
 18 19  1  0
 15 20  1  0
 20 21  1  0
 21 22  2  0
 22 23  1  0
 23 24  1  0
 23 25  1  0
 25 26  1  0
 26 27  1  0
 27 28  1  0
 28 29  1  0
 29 30  1  0
  8  3  1  0
 18 13  1  0
 24 20  2  0
 30 25  1  0
  1 31  1  0
  1 32  1  0
  1 33  1  0
  2 34  1  6
  5 35  1  0
  6 36  1  0
 14 37  1  0
 16 38  1  0
 19 39  1  0
 19 40  1  0
 21 41  1  0
 24 42  1  0
 25 43  1  0
 26 44  1  0
 26 45  1  0
 27 46  1  0
 27 47  1  0
 28 48  1  0
 29 49  1  0
 29 50  1  0
 30 51  1  0
 30 52  1  0
M  END
>  <energy_abs>  (183) 
42.86028330178964

>  <SMILES>  (183) 
C[C@H](c1c(ccc(c1Cl)F)Cl)Oc2cc(cnc2N)c3cnn(c3)C4CCNCC4

>  <cluster_no>  (183) 
183

>  <fda_drugs_id>  (183) 
KTEIFNKAUNYNJU-GFCCVEGCSA-N

>  <initial_conformation_id>  (183) 
106

>  <minimize_method>  (183) 
MMFF

$$$$

     RDKit          3D

 52 55  0  0  0  0  0  0  0  0999 V2000
    2.1542   -1.7607    2.0894 C   0  0  0  0  0  0  0  0  0  0  0  0
    3.2666   -1.8671    1.0397 C   0  0  2  0  0  0  0  0  0  0  0  0
    4.6267   -1.4897    1.6168 C   0  0  0  0  0  0  0  0  0  0  0  0
    5.6420   -2.4598    1.7750 C   0  0  0  0  0  0  0  0  0  0  0  0
    6.9038   -2.1294    2.2969 C   0  0  0  0  0  0  0  0  0  0  0  0
    7.1843   -0.8286    2.6818 C   0  0  0  0  0  0  0  0  0  0  0  0
    6.2045    0.1466    2.5273 C   0  0  0  0  0  0  0  0  0  0  0  0
    4.9427   -0.1652    2.0008 C   0  0  0  0  0  0  0  0  0  0  0  0
    3.8249    1.1481    1.8436 Cl  0  0  0  0  0  0  0  0  0  0  0  0
    6.4975    1.4013    2.9043 F   0  0  0  0  0  0  0  0  0  0  0  0
    5.4236   -4.1164    1.3372 Cl  0  0  0  0  0  0  0  0  0  0  0  0
    3.0788   -1.0620   -0.1378 O   0  0  0  0  0  0  0  0  0  0  0  0
    1.9072   -1.2854   -0.8069 C   0  0  0  0  0  0  0  0  0  0  0  0
    0.9049   -0.3228   -0.6721 C   0  0  0  0  0  0  0  0  0  0  0  0
   -0.2935   -0.4553   -1.3743 C   0  0  0  0  0  0  0  0  0  0  0  0
   -0.3996   -1.5700   -2.1996 C   0  0  0  0  0  0  0  0  0  0  0  0
    0.5698   -2.5086   -2.3666 N   0  0  0  0  0  0  0  0  0  0  0  0
    1.7238   -2.3479   -1.6967 C   0  0  0  0  0  0  0  0  0  0  0  0
    2.7259   -3.2986   -1.9293 N   0  0  0  0  0  0  0  0  0  0  0  0
   -1.3538    0.5282   -1.2365 C   0  0  0  0  0  0  0  0  0  0  0  0
   -1.3754    1.7718   -0.5577 C   0  0  0  0  0  0  0  0  0  0  0  0
   -2.5495    2.3918   -0.6477 N   0  0  0  0  0  0  0  0  0  0  0  0
   -3.2962    1.5581   -1.3944 N   0  0  0  0  0  0  0  0  0  0  0  0
   -2.6246    0.4275   -1.7672 C   0  0  0  0  0  0  0  0  0  0  0  0
   -4.6694    1.9108   -1.7533 C   0  0  0  0  0  0  0  0  0  0  0  0
   -5.4640    2.5271   -0.5855 C   0  0  0  0  0  0  0  0  0  0  0  0
   -5.5012    4.0489   -0.6904 C   0  0  0  0  0  0  0  0  0  0  0  0
   -6.1194    4.5204   -1.9324 N   0  0  0  0  0  0  0  0  0  0  0  0
   -5.9685    3.6177   -3.0707 C   0  0  0  0  0  0  0  0  0  0  0  0
   -4.6812    2.8018   -3.0048 C   0  0  0  0  0  0  0  0  0  0  0  0
    1.2273   -2.2014    1.7107 H   0  0  0  0  0  0  0  0  0  0  0  0
    2.4179   -2.3007    3.0111 H   0  0  0  0  0  0  0  0  0  0  0  0
    1.9106   -0.7269    2.3549 H   0  0  0  0  0  0  0  0  0  0  0  0
    3.2778   -2.9087    0.7186 H   0  0  0  0  0  0  0  0  0  0  0  0
    7.6787   -2.8852    2.3993 H   0  0  0  0  0  0  0  0  0  0  0  0
    8.1605   -0.5646    3.0903 H   0  0  0  0  0  0  0  0  0  0  0  0
    1.0817    0.5228   -0.0163 H   0  0  0  0  0  0  0  0  0  0  0  0
   -1.2879   -1.7595   -2.7948 H   0  0  0  0  0  0  0  0  0  0  0  0
    2.8883   -3.8454   -1.0923 H   0  0  0  0  0  0  0  0  0  0  0  0
    3.5869   -2.8063   -2.1582 H   0  0  0  0  0  0  0  0  0  0  0  0
   -0.5838    2.2544    0.0007 H   0  0  0  0  0  0  0  0  0  0  0  0
   -3.1109   -0.3295   -2.3636 H   0  0  0  0  0  0  0  0  0  0  0  0
   -5.1536    0.9551   -1.9951 H   0  0  0  0  0  0  0  0  0  0  0  0
   -5.0597    2.2193    0.3879 H   0  0  0  0  0  0  0  0  0  0  0  0
   -6.4977    2.1514   -0.6164 H   0  0  0  0  0  0  0  0  0  0  0  0
   -6.0541    4.4653    0.1607 H   0  0  0  0  0  0  0  0  0  0  0  0
   -4.4847    4.4579   -0.6263 H   0  0  0  0  0  0  0  0  0  0  0  0
   -7.1040    4.7393   -1.7880 H   0  0  0  0  0  0  0  0  0  0  0  0
   -5.9846    4.2090   -3.9944 H   0  0  0  0  0  0  0  0  0  0  0  0
   -6.8308    2.9391   -3.1144 H   0  0  0  0  0  0  0  0  0  0  0  0
   -4.5815    2.1798   -3.9029 H   0  0  0  0  0  0  0  0  0  0  0  0
   -3.8189    3.4823   -3.0119 H   0  0  0  0  0  0  0  0  0  0  0  0
  1  2  1  0
  2  3  1  0
  3  4  2  0
  4  5  1  0
  5  6  2  0
  6  7  1  0
  7  8  2  0
  8  9  1  0
  7 10  1  0
  4 11  1  0
  2 12  1  0
 12 13  1  0
 13 14  2  0
 14 15  1  0
 15 16  2  0
 16 17  1  0
 17 18  2  0
 18 19  1  0
 15 20  1  0
 20 21  1  0
 21 22  2  0
 22 23  1  0
 23 24  1  0
 23 25  1  0
 25 26  1  0
 26 27  1  0
 27 28  1  0
 28 29  1  0
 29 30  1  0
  8  3  1  0
 18 13  1  0
 24 20  2  0
 30 25  1  0
  1 31  1  0
  1 32  1  0
  1 33  1  0
  2 34  1  6
  5 35  1  0
  6 36  1  0
 14 37  1  0
 16 38  1  0
 19 39  1  0
 19 40  1  0
 21 41  1  0
 24 42  1  0
 25 43  1  0
 26 44  1  0
 26 45  1  0
 27 46  1  0
 27 47  1  0
 28 48  1  0
 29 49  1  0
 29 50  1  0
 30 51  1  0
 30 52  1  0
M  END
>  <energy_abs>  (184) 
42.972185162559505

>  <SMILES>  (184) 
C[C@H](c1c(ccc(c1Cl)F)Cl)Oc2cc(cnc2N)c3cnn(c3)C4CCNCC4

>  <cluster_no>  (184) 
184

>  <fda_drugs_id>  (184) 
KTEIFNKAUNYNJU-GFCCVEGCSA-N

>  <initial_conformation_id>  (184) 
105

>  <minimize_method>  (184) 
MMFF

$$$$

     RDKit          3D

 52 55  0  0  0  0  0  0  0  0999 V2000
    4.9308   -0.1473   -1.7069 C   0  0  0  0  0  0  0  0  0  0  0  0
    4.0433   -0.3379   -0.4733 C   0  0  2  0  0  0  0  0  0  0  0  0
    4.8711   -0.7008    0.7542 C   0  0  0  0  0  0  0  0  0  0  0  0
    5.1235    0.2666    1.7550 C   0  0  0  0  0  0  0  0  0  0  0  0
    5.8729   -0.0389    2.9012 C   0  0  0  0  0  0  0  0  0  0  0  0
    6.3930   -1.3144    3.0780 C   0  0  0  0  0  0  0  0  0  0  0  0
    6.1720   -2.2754    2.1023 C   0  0  0  0  0  0  0  0  0  0  0  0
    5.4276   -1.9864    0.9494 C   0  0  0  0  0  0  0  0  0  0  0  0
    5.2432   -3.2767   -0.1933 Cl  0  0  0  0  0  0  0  0  0  0  0  0
    6.6950   -3.4979    2.2892 F   0  0  0  0  0  0  0  0  0  0  0  0
    4.5580    1.9001    1.6396 Cl  0  0  0  0  0  0  0  0  0  0  0  0
    3.0547   -1.3410   -0.7820 O   0  0  0  0  0  0  0  0  0  0  0  0
    1.8280   -1.0254   -0.2579 C   0  0  0  0  0  0  0  0  0  0  0  0
    0.9834   -0.1692   -0.9625 C   0  0  0  0  0  0  0  0  0  0  0  0
   -0.2795    0.1214   -0.4465 C   0  0  0  0  0  0  0  0  0  0  0  0
   -0.6243   -0.4854    0.7594 C   0  0  0  0  0  0  0  0  0  0  0  0
    0.1703   -1.3424    1.4504 N   0  0  0  0  0  0  0  0  0  0  0  0
    1.3768   -1.6144    0.9261 C   0  0  0  0  0  0  0  0  0  0  0  0
    2.1829   -2.4802    1.6635 N   0  0  0  0  0  0  0  0  0  0  0  0
   -1.1785    1.0237   -1.1377 C   0  0  0  0  0  0  0  0  0  0  0  0
   -0.9116    2.1295   -1.9761 C   0  0  0  0  0  0  0  0  0  0  0  0
   -2.0227    2.7057   -2.4409 N   0  0  0  0  0  0  0  0  0  0  0  0
   -3.0134    1.9657   -1.9105 N   0  0  0  0  0  0  0  0  0  0  0  0
   -2.5554    0.9482   -1.1177 C   0  0  0  0  0  0  0  0  0  0  0  0
   -4.3979    2.2953   -2.2223 C   0  0  0  0  0  0  0  0  0  0  0  0
   -5.0699    1.2118   -3.0837 C   0  0  0  0  0  0  0  0  0  0  0  0
   -6.4833    0.8944   -2.6079 C   0  0  0  0  0  0  0  0  0  0  0  0
   -7.2492    2.1075   -2.3547 N   0  0  0  0  0  0  0  0  0  0  0  0
   -6.6470    2.9747   -1.3400 C   0  0  0  0  0  0  0  0  0  0  0  0
   -5.2090    2.6216   -0.9656 C   0  0  0  0  0  0  0  0  0  0  0  0
    4.3218    0.1635   -2.5616 H   0  0  0  0  0  0  0  0  0  0  0  0
    5.4292   -1.0721   -2.0072 H   0  0  0  0  0  0  0  0  0  0  0  0
    5.6981    0.6132   -1.5333 H   0  0  0  0  0  0  0  0  0  0  0  0
    3.5321    0.6194   -0.3290 H   0  0  0  0  0  0  0  0  0  0  0  0
    6.0509    0.7191    3.6616 H   0  0  0  0  0  0  0  0  0  0  0  0
    6.9706   -1.5652    3.9614 H   0  0  0  0  0  0  0  0  0  0  0  0
    1.3152    0.2471   -1.9090 H   0  0  0  0  0  0  0  0  0  0  0  0
   -1.5809   -0.2909    1.2379 H   0  0  0  0  0  0  0  0  0  0  0  0
    2.5782   -3.1974    1.0618 H   0  0  0  0  0  0  0  0  0  0  0  0
    1.6166   -2.8596    2.4167 H   0  0  0  0  0  0  0  0  0  0  0  0
    0.0469    2.5438   -2.2641 H   0  0  0  0  0  0  0  0  0  0  0  0
   -3.2373    0.2636   -0.6365 H   0  0  0  0  0  0  0  0  0  0  0  0
   -4.3542    3.2119   -2.8276 H   0  0  0  0  0  0  0  0  0  0  0  0
   -4.4887    0.2817   -3.1064 H   0  0  0  0  0  0  0  0  0  0  0  0
   -5.1034    1.5679   -4.1229 H   0  0  0  0  0  0  0  0  0  0  0  0
   -6.4538    0.2776   -1.7015 H   0  0  0  0  0  0  0  0  0  0  0  0
   -6.9966    0.2943   -3.3648 H   0  0  0  0  0  0  0  0  0  0  0  0
   -7.3673    2.6283   -3.2250 H   0  0  0  0  0  0  0  0  0  0  0  0
   -6.6817    4.0092   -1.7040 H   0  0  0  0  0  0  0  0  0  0  0  0
   -7.2696    2.9468   -0.4380 H   0  0  0  0  0  0  0  0  0  0  0  0
   -5.2084    1.7701   -0.2723 H   0  0  0  0  0  0  0  0  0  0  0  0
   -4.7544    3.4608   -0.4241 H   0  0  0  0  0  0  0  0  0  0  0  0
  1  2  1  0
  2  3  1  0
  3  4  2  0
  4  5  1  0
  5  6  2  0
  6  7  1  0
  7  8  2  0
  8  9  1  0
  7 10  1  0
  4 11  1  0
  2 12  1  0
 12 13  1  0
 13 14  2  0
 14 15  1  0
 15 16  2  0
 16 17  1  0
 17 18  2  0
 18 19  1  0
 15 20  1  0
 20 21  1  0
 21 22  2  0
 22 23  1  0
 23 24  1  0
 23 25  1  0
 25 26  1  0
 26 27  1  0
 27 28  1  0
 28 29  1  0
 29 30  1  0
  8  3  1  0
 18 13  1  0
 24 20  2  0
 30 25  1  0
  1 31  1  0
  1 32  1  0
  1 33  1  0
  2 34  1  1
  5 35  1  0
  6 36  1  0
 14 37  1  0
 16 38  1  0
 19 39  1  0
 19 40  1  0
 21 41  1  0
 24 42  1  0
 25 43  1  0
 26 44  1  0
 26 45  1  0
 27 46  1  0
 27 47  1  0
 28 48  1  0
 29 49  1  0
 29 50  1  0
 30 51  1  0
 30 52  1  0
M  END
>  <energy_abs>  (185) 
30.43147256815016

>  <SMILES>  (185) 
C[C@H](c1c(ccc(c1Cl)F)Cl)Oc2cc(cnc2N)c3cnn(c3)C4CCNCC4

>  <cluster_no>  (185) 
185

>  <fda_drugs_id>  (185) 
KTEIFNKAUNYNJU-GFCCVEGCSA-N

>  <initial_conformation_id>  (185) 
102

>  <minimize_method>  (185) 
MMFF

$$$$

     RDKit          3D

 52 55  0  0  0  0  0  0  0  0999 V2000
    3.4866    1.1439   -0.0400 C   0  0  0  0  0  0  0  0  0  0  0  0
    3.6389    0.0023    0.9726 C   0  0  2  0  0  0  0  0  0  0  0  0
    4.8711   -0.8448    0.6726 C   0  0  0  0  0  0  0  0  0  0  0  0
    6.0101   -0.7826    1.5087 C   0  0  0  0  0  0  0  0  0  0  0  0
    7.1527   -1.5583    1.2561 C   0  0  0  0  0  0  0  0  0  0  0  0
    7.1842   -2.4205    0.1630 C   0  0  0  0  0  0  0  0  0  0  0  0
    6.0812   -2.4971   -0.6708 C   0  0  0  0  0  0  0  0  0  0  0  0
    4.9369   -1.7205   -0.4387 C   0  0  0  0  0  0  0  0  0  0  0  0
    3.6342   -1.9103   -1.5680 Cl  0  0  0  0  0  0  0  0  0  0  0  0
    6.1302   -3.3458   -1.7104 F   0  0  0  0  0  0  0  0  0  0  0  0
    6.1015    0.2562    2.8950 Cl  0  0  0  0  0  0  0  0  0  0  0  0
    2.5068   -0.8861    1.0142 O   0  0  0  0  0  0  0  0  0  0  0  0
    1.3812   -0.3130    1.5461 C   0  0  0  0  0  0  0  0  0  0  0  0
    0.3901    0.1056    0.6596 C   0  0  0  0  0  0  0  0  0  0  0  0
   -0.8002    0.6419    1.1503 C   0  0  0  0  0  0  0  0  0  0  0  0
   -0.9174    0.7269    2.5345 C   0  0  0  0  0  0  0  0  0  0  0  0
    0.0192    0.2945    3.4182 N   0  0  0  0  0  0  0  0  0  0  0  0
    1.1426   -0.2508    2.9226 C   0  0  0  0  0  0  0  0  0  0  0  0
    2.0481   -0.7952    3.8456 N   0  0  0  0  0  0  0  0  0  0  0  0
   -1.8719    1.0736    0.2695 C   0  0  0  0  0  0  0  0  0  0  0  0
   -2.9724    1.9364    0.4884 C   0  0  0  0  0  0  0  0  0  0  0  0
   -3.7610    2.0560   -0.5796 N   0  0  0  0  0  0  0  0  0  0  0  0
   -3.1755    1.2609   -1.4952 N   0  0  0  0  0  0  0  0  0  0  0  0
   -2.0437    0.6499   -1.0314 C   0  0  0  0  0  0  0  0  0  0  0  0
   -3.7437    1.1150   -2.8242 C   0  0  0  0  0  0  0  0  0  0  0  0
   -5.2114    0.6875   -2.7937 C   0  0  0  0  0  0  0  0  0  0  0  0
   -5.7122    0.4104   -4.2123 C   0  0  0  0  0  0  0  0  0  0  0  0
   -5.0315    1.1976   -5.2425 N   0  0  0  0  0  0  0  0  0  0  0  0
   -4.6243    2.5115   -4.7569 C   0  0  0  0  0  0  0  0  0  0  0  0
   -3.5656    2.3874   -3.6647 C   0  0  0  0  0  0  0  0  0  0  0  0
    2.7232    1.8553    0.2960 H   0  0  0  0  0  0  0  0  0  0  0  0
    3.1653    0.7883   -1.0224 H   0  0  0  0  0  0  0  0  0  0  0  0
    4.4226    1.6969   -0.1574 H   0  0  0  0  0  0  0  0  0  0  0  0
    3.7368    0.4632    1.9586 H   0  0  0  0  0  0  0  0  0  0  0  0
    8.0186   -1.5002    1.9147 H   0  0  0  0  0  0  0  0  0  0  0  0
    8.0550   -3.0344   -0.0405 H   0  0  0  0  0  0  0  0  0  0  0  0
    0.5638    0.0014   -0.4055 H   0  0  0  0  0  0  0  0  0  0  0  0
   -1.8044    1.1366    3.0075 H   0  0  0  0  0  0  0  0  0  0  0  0
    2.1920   -1.7739    3.6044 H   0  0  0  0  0  0  0  0  0  0  0  0
    2.9432   -0.3283    3.7796 H   0  0  0  0  0  0  0  0  0  0  0  0
   -3.2332    2.4875    1.3820 H   0  0  0  0  0  0  0  0  0  0  0  0
   -1.4797   -0.0292   -1.6558 H   0  0  0  0  0  0  0  0  0  0  0  0
   -3.1689    0.3092   -3.3007 H   0  0  0  0  0  0  0  0  0  0  0  0
   -5.3455   -0.2040   -2.1721 H   0  0  0  0  0  0  0  0  0  0  0  0
   -5.8219    1.4797   -2.3412 H   0  0  0  0  0  0  0  0  0  0  0  0
   -5.5638   -0.6505   -4.4528 H   0  0  0  0  0  0  0  0  0  0  0  0
   -6.7923    0.5939   -4.2517 H   0  0  0  0  0  0  0  0  0  0  0  0
   -5.6447    1.2997   -6.0512 H   0  0  0  0  0  0  0  0  0  0  0  0
   -5.4929    3.0746   -4.3937 H   0  0  0  0  0  0  0  0  0  0  0  0
   -4.2087    3.0879   -5.5916 H   0  0  0  0  0  0  0  0  0  0  0  0
   -3.6089    3.2884   -3.0427 H   0  0  0  0  0  0  0  0  0  0  0  0
   -2.5664    2.3718   -4.1089 H   0  0  0  0  0  0  0  0  0  0  0  0
  1  2  1  0
  2  3  1  0
  3  4  2  0
  4  5  1  0
  5  6  2  0
  6  7  1  0
  7  8  2  0
  8  9  1  0
  7 10  1  0
  4 11  1  0
  2 12  1  0
 12 13  1  0
 13 14  2  0
 14 15  1  0
 15 16  2  0
 16 17  1  0
 17 18  2  0
 18 19  1  0
 15 20  1  0
 20 21  1  0
 21 22  2  0
 22 23  1  0
 23 24  1  0
 23 25  1  0
 25 26  1  0
 26 27  1  0
 27 28  1  0
 28 29  1  0
 29 30  1  0
  8  3  1  0
 18 13  1  0
 24 20  2  0
 30 25  1  0
  1 31  1  0
  1 32  1  0
  1 33  1  0
  2 34  1  1
  5 35  1  0
  6 36  1  0
 14 37  1  0
 16 38  1  0
 19 39  1  0
 19 40  1  0
 21 41  1  0
 24 42  1  0
 25 43  1  0
 26 44  1  0
 26 45  1  0
 27 46  1  0
 27 47  1  0
 28 48  1  0
 29 49  1  0
 29 50  1  0
 30 51  1  0
 30 52  1  0
M  END
>  <energy_abs>  (186) 
40.17095071613768

>  <SMILES>  (186) 
C[C@H](c1c(ccc(c1Cl)F)Cl)Oc2cc(cnc2N)c3cnn(c3)C4CCNCC4

>  <cluster_no>  (186) 
186

>  <fda_drugs_id>  (186) 
KTEIFNKAUNYNJU-GFCCVEGCSA-N

>  <initial_conformation_id>  (186) 
101

>  <minimize_method>  (186) 
MMFF

$$$$

     RDKit          3D

 52 55  0  0  0  0  0  0  0  0999 V2000
    2.7270   -2.5700    1.7140 C   0  0  0  0  0  0  0  0  0  0  0  0
    2.9915   -1.3847    0.7779 C   0  0  2  0  0  0  0  0  0  0  0  0
    4.3977   -1.4448    0.1871 C   0  0  0  0  0  0  0  0  0  0  0  0
    4.5920   -1.7249   -1.1877 C   0  0  0  0  0  0  0  0  0  0  0  0
    5.8773   -1.8203   -1.7428 C   0  0  0  0  0  0  0  0  0  0  0  0
    7.0022   -1.6493   -0.9429 C   0  0  0  0  0  0  0  0  0  0  0  0
    6.8366   -1.3575    0.4030 C   0  0  0  0  0  0  0  0  0  0  0  0
    5.5598   -1.2446    0.9724 C   0  0  0  0  0  0  0  0  0  0  0  0
    5.5040   -0.8377    2.6560 Cl  0  0  0  0  0  0  0  0  0  0  0  0
    7.9396   -1.2063    1.1581 F   0  0  0  0  0  0  0  0  0  0  0  0
    3.2770   -1.9805   -2.2918 Cl  0  0  0  0  0  0  0  0  0  0  0  0
    2.8320   -0.1098    1.4234 O   0  0  0  0  0  0  0  0  0  0  0  0
    1.5415    0.1795    1.7851 C   0  0  0  0  0  0  0  0  0  0  0  0
    0.5334    0.3621    0.8373 C   0  0  0  0  0  0  0  0  0  0  0  0
   -0.7588    0.6890    1.2569 C   0  0  0  0  0  0  0  0  0  0  0  0
   -0.9473    0.8431    2.6303 C   0  0  0  0  0  0  0  0  0  0  0  0
    0.0218    0.7041    3.5699 N   0  0  0  0  0  0  0  0  0  0  0  0
    1.2526    0.3860    3.1359 C   0  0  0  0  0  0  0  0  0  0  0  0
    2.2177    0.1762    4.1198 N   0  0  0  0  0  0  0  0  0  0  0  0
   -1.8650    0.8598    0.3277 C   0  0  0  0  0  0  0  0  0  0  0  0
   -3.2564    0.9820    0.5628 C   0  0  0  0  0  0  0  0  0  0  0  0
   -3.9622    1.1470   -0.5578 N   0  0  0  0  0  0  0  0  0  0  0  0
   -3.0316    1.1201   -1.5280 N   0  0  0  0  0  0  0  0  0  0  0  0
   -1.7607    0.9540   -1.0466 C   0  0  0  0  0  0  0  0  0  0  0  0
   -3.4141    1.3061   -2.9234 C   0  0  0  0  0  0  0  0  0  0  0  0
   -3.7814    2.7675   -3.2053 C   0  0  0  0  0  0  0  0  0  0  0  0
   -4.2190    2.9401   -4.6546 C   0  0  0  0  0  0  0  0  0  0  0  0
   -5.3204    2.0423   -4.9997 N   0  0  0  0  0  0  0  0  0  0  0  0
   -4.9545    0.6392   -4.7956 C   0  0  0  0  0  0  0  0  0  0  0  0
   -4.5475    0.3647   -3.3523 C   0  0  0  0  0  0  0  0  0  0  0  0
    3.2890   -2.5065    2.6463 H   0  0  0  0  0  0  0  0  0  0  0  0
    2.9720   -3.5198    1.2273 H   0  0  0  0  0  0  0  0  0  0  0  0
    1.6709   -2.6028    1.9996 H   0  0  0  0  0  0  0  0  0  0  0  0
    2.2545   -1.4528   -0.0263 H   0  0  0  0  0  0  0  0  0  0  0  0
    6.0053   -2.0416   -2.8009 H   0  0  0  0  0  0  0  0  0  0  0  0
    8.0023   -1.7357   -1.3564 H   0  0  0  0  0  0  0  0  0  0  0  0
    0.7658    0.2513   -0.2144 H   0  0  0  0  0  0  0  0  0  0  0  0
   -1.9191    1.0953    3.0495 H   0  0  0  0  0  0  0  0  0  0  0  0
    1.8463    0.4985    5.0048 H   0  0  0  0  0  0  0  0  0  0  0  0
    3.1015    0.6004    3.8671 H   0  0  0  0  0  0  0  0  0  0  0  0
   -3.7897    0.9618    1.5036 H   0  0  0  0  0  0  0  0  0  0  0  0
   -0.9138    0.9336   -1.7168 H   0  0  0  0  0  0  0  0  0  0  0  0
   -2.5225    1.0546   -3.5155 H   0  0  0  0  0  0  0  0  0  0  0  0
   -2.9216    3.4183   -3.0004 H   0  0  0  0  0  0  0  0  0  0  0  0
   -4.5902    3.0975   -2.5359 H   0  0  0  0  0  0  0  0  0  0  0  0
   -4.5402    3.9736   -4.8182 H   0  0  0  0  0  0  0  0  0  0  0  0
   -3.3731    2.7665   -5.3322 H   0  0  0  0  0  0  0  0  0  0  0  0
   -6.1280    2.2622   -4.4118 H   0  0  0  0  0  0  0  0  0  0  0  0
   -4.1433    0.3649   -5.4811 H   0  0  0  0  0  0  0  0  0  0  0  0
   -5.8116    0.0105   -5.0589 H   0  0  0  0  0  0  0  0  0  0  0  0
   -5.4232    0.4907   -2.7027 H   0  0  0  0  0  0  0  0  0  0  0  0
   -4.2274   -0.6800   -3.2479 H   0  0  0  0  0  0  0  0  0  0  0  0
  1  2  1  0
  2  3  1  0
  3  4  2  0
  4  5  1  0
  5  6  2  0
  6  7  1  0
  7  8  2  0
  8  9  1  0
  7 10  1  0
  4 11  1  0
  2 12  1  0
 12 13  1  0
 13 14  2  0
 14 15  1  0
 15 16  2  0
 16 17  1  0
 17 18  2  0
 18 19  1  0
 15 20  1  0
 20 21  1  0
 21 22  2  0
 22 23  1  0
 23 24  1  0
 23 25  1  0
 25 26  1  0
 26 27  1  0
 27 28  1  0
 28 29  1  0
 29 30  1  0
  8  3  1  0
 18 13  1  0
 24 20  2  0
 30 25  1  0
  1 31  1  0
  1 32  1  0
  1 33  1  0
  2 34  1  6
  5 35  1  0
  6 36  1  0
 14 37  1  0
 16 38  1  0
 19 39  1  0
 19 40  1  0
 21 41  1  0
 24 42  1  0
 25 43  1  0
 26 44  1  0
 26 45  1  0
 27 46  1  0
 27 47  1  0
 28 48  1  0
 29 49  1  0
 29 50  1  0
 30 51  1  0
 30 52  1  0
M  END
>  <energy_abs>  (187) 
25.328650848735048

>  <SMILES>  (187) 
C[C@H](c1c(ccc(c1Cl)F)Cl)Oc2cc(cnc2N)c3cnn(c3)C4CCNCC4

>  <cluster_no>  (187) 
187

>  <fda_drugs_id>  (187) 
KTEIFNKAUNYNJU-GFCCVEGCSA-N

>  <initial_conformation_id>  (187) 
100

>  <minimize_method>  (187) 
MMFF

$$$$

     RDKit          3D

 52 55  0  0  0  0  0  0  0  0999 V2000
    2.6490   -3.7696    0.3921 C   0  0  0  0  0  0  0  0  0  0  0  0
    2.4231   -2.2553    0.4671 C   0  0  2  0  0  0  0  0  0  0  0  0
    3.6710   -1.4670    0.0719 C   0  0  0  0  0  0  0  0  0  0  0  0
    3.7019   -0.7265   -1.1354 C   0  0  0  0  0  0  0  0  0  0  0  0
    4.8392    0.0043   -1.5195 C   0  0  0  0  0  0  0  0  0  0  0  0
    5.9667    0.0278   -0.7090 C   0  0  0  0  0  0  0  0  0  0  0  0
    5.9590   -0.6878    0.4799 C   0  0  0  0  0  0  0  0  0  0  0  0
    4.8365   -1.4313    0.8750 C   0  0  0  0  0  0  0  0  0  0  0  0
    4.9625   -2.2676    2.3880 Cl  0  0  0  0  0  0  0  0  0  0  0  0
    7.0432   -0.6178    1.2647 F   0  0  0  0  0  0  0  0  0  0  0  0
    2.3572   -0.6602   -2.2295 Cl  0  0  0  0  0  0  0  0  0  0  0  0
    1.9698   -1.9306    1.7961 O   0  0  0  0  0  0  0  0  0  0  0  0
    1.3266   -0.7218    1.9199 C   0  0  0  0  0  0  0  0  0  0  0  0
    0.2728   -0.3298    1.0910 C   0  0  0  0  0  0  0  0  0  0  0  0
   -0.3467    0.9082    1.2865 C   0  0  0  0  0  0  0  0  0  0  0  0
    0.1258    1.6857    2.3393 C   0  0  0  0  0  0  0  0  0  0  0  0
    1.1190    1.3159    3.1844 N   0  0  0  0  0  0  0  0  0  0  0  0
    1.6970    0.1195    2.9800 C   0  0  0  0  0  0  0  0  0  0  0  0
    2.6709   -0.2849    3.9083 N   0  0  0  0  0  0  0  0  0  0  0  0
   -1.4492    1.3579    0.4550 C   0  0  0  0  0  0  0  0  0  0  0  0
   -2.4660    2.3095    0.7047 C   0  0  0  0  0  0  0  0  0  0  0  0
   -3.3089    2.4483   -0.3207 N   0  0  0  0  0  0  0  0  0  0  0  0
   -2.8402    1.5867   -1.2406 N   0  0  0  0  0  0  0  0  0  0  0  0
   -1.7233    0.9137   -0.8235 C   0  0  0  0  0  0  0  0  0  0  0  0
   -3.5229    1.4670   -2.5227 C   0  0  0  0  0  0  0  0  0  0  0  0
   -2.6405    1.9337   -3.6848 C   0  0  0  0  0  0  0  0  0  0  0  0
   -3.3804    1.7780   -5.0110 C   0  0  0  0  0  0  0  0  0  0  0  0
   -3.8537    0.4084   -5.2143 N   0  0  0  0  0  0  0  0  0  0  0  0
   -4.7345   -0.0283   -4.1306 C   0  0  0  0  0  0  0  0  0  0  0  0
   -4.0398    0.0464   -2.7734 C   0  0  0  0  0  0  0  0  0  0  0  0
    3.0075   -4.0710   -0.5974 H   0  0  0  0  0  0  0  0  0  0  0  0
    1.7098   -4.2957    0.5932 H   0  0  0  0  0  0  0  0  0  0  0  0
    3.3590   -4.1309    1.1389 H   0  0  0  0  0  0  0  0  0  0  0  0
    1.6073   -2.0787   -0.2370 H   0  0  0  0  0  0  0  0  0  0  0  0
    4.8420    0.5737   -2.4491 H   0  0  0  0  0  0  0  0  0  0  0  0
    6.8466    0.6025   -0.9864 H   0  0  0  0  0  0  0  0  0  0  0  0
   -0.0989   -0.9997    0.3238 H   0  0  0  0  0  0  0  0  0  0  0  0
   -0.2911    2.6646    2.5585 H   0  0  0  0  0  0  0  0  0  0  0  0
    2.3366   -1.1355    4.3534 H   0  0  0  0  0  0  0  0  0  0  0  0
    3.5115   -0.5551    3.4029 H   0  0  0  0  0  0  0  0  0  0  0  0
   -2.6356    2.9053    1.5948 H   0  0  0  0  0  0  0  0  0  0  0  0
   -1.2281    0.1987   -1.4674 H   0  0  0  0  0  0  0  0  0  0  0  0
   -4.3933    2.1362   -2.4659 H   0  0  0  0  0  0  0  0  0  0  0  0
   -2.3498    2.9827   -3.5457 H   0  0  0  0  0  0  0  0  0  0  0  0
   -1.7073    1.3539   -3.7181 H   0  0  0  0  0  0  0  0  0  0  0  0
   -4.2267    2.4760   -5.0599 H   0  0  0  0  0  0  0  0  0  0  0  0
   -2.7114    2.0463   -5.8372 H   0  0  0  0  0  0  0  0  0  0  0  0
   -3.0548   -0.2242   -5.2818 H   0  0  0  0  0  0  0  0  0  0  0  0
   -5.6489    0.5788   -4.1281 H   0  0  0  0  0  0  0  0  0  0  0  0
   -5.0460   -1.0608   -4.3230 H   0  0  0  0  0  0  0  0  0  0  0  0
   -3.2121   -0.6738   -2.7494 H   0  0  0  0  0  0  0  0  0  0  0  0
   -4.7357   -0.2520   -1.9823 H   0  0  0  0  0  0  0  0  0  0  0  0
  1  2  1  0
  2  3  1  0
  3  4  2  0
  4  5  1  0
  5  6  2  0
  6  7  1  0
  7  8  2  0
  8  9  1  0
  7 10  1  0
  4 11  1  0
  2 12  1  0
 12 13  1  0
 13 14  2  0
 14 15  1  0
 15 16  2  0
 16 17  1  0
 17 18  2  0
 18 19  1  0
 15 20  1  0
 20 21  1  0
 21 22  2  0
 22 23  1  0
 23 24  1  0
 23 25  1  0
 25 26  1  0
 26 27  1  0
 27 28  1  0
 28 29  1  0
 29 30  1  0
  8  3  1  0
 18 13  1  0
 24 20  2  0
 30 25  1  0
  1 31  1  0
  1 32  1  0
  1 33  1  0
  2 34  1  6
  5 35  1  0
  6 36  1  0
 14 37  1  0
 16 38  1  0
 19 39  1  0
 19 40  1  0
 21 41  1  0
 24 42  1  0
 25 43  1  0
 26 44  1  0
 26 45  1  0
 27 46  1  0
 27 47  1  0
 28 48  1  0
 29 49  1  0
 29 50  1  0
 30 51  1  0
 30 52  1  0
M  END
>  <energy_abs>  (188) 
33.81939811880867

>  <SMILES>  (188) 
C[C@H](c1c(ccc(c1Cl)F)Cl)Oc2cc(cnc2N)c3cnn(c3)C4CCNCC4

>  <cluster_no>  (188) 
188

>  <fda_drugs_id>  (188) 
KTEIFNKAUNYNJU-GFCCVEGCSA-N

>  <initial_conformation_id>  (188) 
99

>  <minimize_method>  (188) 
MMFF

$$$$

     RDKit          3D

 52 55  0  0  0  0  0  0  0  0999 V2000
    4.6260   -2.1708    2.9182 C   0  0  0  0  0  0  0  0  0  0  0  0
    3.5103   -1.6320    2.0176 C   0  0  2  0  0  0  0  0  0  0  0  0
    4.0392   -1.2863    0.6281 C   0  0  0  0  0  0  0  0  0  0  0  0
    3.7900   -2.1524   -0.4639 C   0  0  0  0  0  0  0  0  0  0  0  0
    4.2402   -1.8507   -1.7573 C   0  0  0  0  0  0  0  0  0  0  0  0
    4.9595   -0.6851   -1.9932 C   0  0  0  0  0  0  0  0  0  0  0  0
    5.2359    0.1688   -0.9333 C   0  0  0  0  0  0  0  0  0  0  0  0
    4.7937   -0.1179    0.3660 C   0  0  0  0  0  0  0  0  0  0  0  0
    5.2290    1.0180    1.6003 Cl  0  0  0  0  0  0  0  0  0  0  0  0
    5.9439    1.2810   -1.1851 F   0  0  0  0  0  0  0  0  0  0  0  0
    2.9355   -3.6493   -0.2928 Cl  0  0  0  0  0  0  0  0  0  0  0  0
    2.9061   -0.4984    2.6761 O   0  0  0  0  0  0  0  0  0  0  0  0
    1.5465   -0.4647    2.4873 C   0  0  0  0  0  0  0  0  0  0  0  0
    1.0147    0.0260    1.2949 C   0  0  0  0  0  0  0  0  0  0  0  0
   -0.3695    0.0553    1.1206 C   0  0  0  0  0  0  0  0  0  0  0  0
   -1.1434   -0.4033    2.1866 C   0  0  0  0  0  0  0  0  0  0  0  0
   -0.6493   -0.8519    3.3690 N   0  0  0  0  0  0  0  0  0  0  0  0
    0.6847   -0.8645    3.5166 C   0  0  0  0  0  0  0  0  0  0  0  0
    1.1966   -1.3064    4.7476 N   0  0  0  0  0  0  0  0  0  0  0  0
   -0.9531    0.5325   -0.1217 C   0  0  0  0  0  0  0  0  0  0  0  0
   -0.3737    0.7280   -1.3995 C   0  0  0  0  0  0  0  0  0  0  0  0
   -1.2420    1.1881   -2.3022 N   0  0  0  0  0  0  0  0  0  0  0  0
   -2.3917    1.2942   -1.6109 N   0  0  0  0  0  0  0  0  0  0  0  0
   -2.2668    0.9179   -0.2989 C   0  0  0  0  0  0  0  0  0  0  0  0
   -3.6097    1.7680   -2.2630 C   0  0  0  0  0  0  0  0  0  0  0  0
   -4.2185    0.6730   -3.1508 C   0  0  0  0  0  0  0  0  0  0  0  0
   -5.1164    1.2893   -4.2153 C   0  0  0  0  0  0  0  0  0  0  0  0
   -4.3891    2.1791   -5.1185 N   0  0  0  0  0  0  0  0  0  0  0  0
   -3.2391    2.8548   -4.5152 C   0  0  0  0  0  0  0  0  0  0  0  0
   -3.4045    3.0922   -3.0186 C   0  0  0  0  0  0  0  0  0  0  0  0
    4.2210   -2.4381    3.9005 H   0  0  0  0  0  0  0  0  0  0  0  0
    5.0914   -3.0587    2.4809 H   0  0  0  0  0  0  0  0  0  0  0  0
    5.4080   -1.4276    3.1004 H   0  0  0  0  0  0  0  0  0  0  0  0
    2.7592   -2.4295    1.9658 H   0  0  0  0  0  0  0  0  0  0  0  0
    4.0357   -2.5294   -2.5841 H   0  0  0  0  0  0  0  0  0  0  0  0
    5.3126   -0.4403   -2.9904 H   0  0  0  0  0  0  0  0  0  0  0  0
    1.6824    0.3968    0.5234 H   0  0  0  0  0  0  0  0  0  0  0  0
   -2.2282   -0.4344    2.1345 H   0  0  0  0  0  0  0  0  0  0  0  0
    1.7930   -0.5675    5.1177 H   0  0  0  0  0  0  0  0  0  0  0  0
    1.7951   -2.1090    4.5838 H   0  0  0  0  0  0  0  0  0  0  0  0
    0.6458    0.5501   -1.7149 H   0  0  0  0  0  0  0  0  0  0  0  0
   -3.1121    0.9634    0.3740 H   0  0  0  0  0  0  0  0  0  0  0  0
   -4.3118    1.9769   -1.4434 H   0  0  0  0  0  0  0  0  0  0  0  0
   -4.7941   -0.0258   -2.5312 H   0  0  0  0  0  0  0  0  0  0  0  0
   -3.4369    0.0745   -3.6382 H   0  0  0  0  0  0  0  0  0  0  0  0
   -5.9287    1.8464   -3.7310 H   0  0  0  0  0  0  0  0  0  0  0  0
   -5.5865    0.4961   -4.8071 H   0  0  0  0  0  0  0  0  0  0  0  0
   -5.0284    2.8567   -5.5293 H   0  0  0  0  0  0  0  0  0  0  0  0
   -3.0840    3.8121   -5.0249 H   0  0  0  0  0  0  0  0  0  0  0  0
   -2.3396    2.2586   -4.7076 H   0  0  0  0  0  0  0  0  0  0  0  0
   -2.5497    3.6560   -2.6267 H   0  0  0  0  0  0  0  0  0  0  0  0
   -4.2844    3.7284   -2.8626 H   0  0  0  0  0  0  0  0  0  0  0  0
  1  2  1  0
  2  3  1  0
  3  4  2  0
  4  5  1  0
  5  6  2  0
  6  7  1  0
  7  8  2  0
  8  9  1  0
  7 10  1  0
  4 11  1  0
  2 12  1  0
 12 13  1  0
 13 14  2  0
 14 15  1  0
 15 16  2  0
 16 17  1  0
 17 18  2  0
 18 19  1  0
 15 20  1  0
 20 21  1  0
 21 22  2  0
 22 23  1  0
 23 24  1  0
 23 25  1  0
 25 26  1  0
 26 27  1  0
 27 28  1  0
 28 29  1  0
 29 30  1  0
  8  3  1  0
 18 13  1  0
 24 20  2  0
 30 25  1  0
  1 31  1  0
  1 32  1  0
  1 33  1  0
  2 34  1  6
  5 35  1  0
  6 36  1  0
 14 37  1  0
 16 38  1  0
 19 39  1  0
 19 40  1  0
 21 41  1  0
 24 42  1  0
 25 43  1  0
 26 44  1  0
 26 45  1  0
 27 46  1  0
 27 47  1  0
 28 48  1  0
 29 49  1  0
 29 50  1  0
 30 51  1  0
 30 52  1  0
M  END
>  <energy_abs>  (189) 
39.76150414234099

>  <SMILES>  (189) 
C[C@H](c1c(ccc(c1Cl)F)Cl)Oc2cc(cnc2N)c3cnn(c3)C4CCNCC4

>  <cluster_no>  (189) 
189

>  <fda_drugs_id>  (189) 
KTEIFNKAUNYNJU-GFCCVEGCSA-N

>  <initial_conformation_id>  (189) 
97

>  <minimize_method>  (189) 
MMFF

$$$$

     RDKit          3D

 52 55  0  0  0  0  0  0  0  0999 V2000
    3.9488   -3.7474    1.6430 C   0  0  0  0  0  0  0  0  0  0  0  0
    3.1879   -2.4945    1.1961 C   0  0  2  0  0  0  0  0  0  0  0  0
    4.1557   -1.3654    0.8520 C   0  0  0  0  0  0  0  0  0  0  0  0
    4.8268   -0.6088    1.8406 C   0  0  0  0  0  0  0  0  0  0  0  0
    5.6952    0.4382    1.4942 C   0  0  0  0  0  0  0  0  0  0  0  0
    5.9293    0.7492    0.1605 C   0  0  0  0  0  0  0  0  0  0  0  0
    5.3031    0.0029   -0.8248 C   0  0  0  0  0  0  0  0  0  0  0  0
    4.4328   -1.0453   -0.4975 C   0  0  0  0  0  0  0  0  0  0  0  0
    3.7404   -1.9284   -1.8192 Cl  0  0  0  0  0  0  0  0  0  0  0  0
    5.5556    0.3061   -2.1072 F   0  0  0  0  0  0  0  0  0  0  0  0
    4.6741   -0.9136    3.5370 Cl  0  0  0  0  0  0  0  0  0  0  0  0
    2.2583   -2.1528    2.2351 O   0  0  0  0  0  0  0  0  0  0  0  0
    1.2620   -1.2460    1.9752 C   0  0  0  0  0  0  0  0  0  0  0  0
    0.8042   -0.8833    0.7071 C   0  0  0  0  0  0  0  0  0  0  0  0
   -0.2351    0.0442    0.5736 C   0  0  0  0  0  0  0  0  0  0  0  0
   -0.7758    0.5602    1.7467 C   0  0  0  0  0  0  0  0  0  0  0  0
   -0.3721    0.2201    2.9935 N   0  0  0  0  0  0  0  0  0  0  0  0
    0.6290   -0.6739    3.0904 C   0  0  0  0  0  0  0  0  0  0  0  0
    1.0605   -0.9520    4.3869 N   0  0  0  0  0  0  0  0  0  0  0  0
   -0.7138    0.4439   -0.7373 C   0  0  0  0  0  0  0  0  0  0  0  0
   -0.0714    0.4405   -1.9975 C   0  0  0  0  0  0  0  0  0  0  0  0
   -0.8599    0.8775   -2.9818 N   0  0  0  0  0  0  0  0  0  0  0  0
   -2.0188    1.1637   -2.3615 N   0  0  0  0  0  0  0  0  0  0  0  0
   -1.9799    0.9178   -1.0156 C   0  0  0  0  0  0  0  0  0  0  0  0
   -3.1399    1.6741   -3.1410 C   0  0  0  0  0  0  0  0  0  0  0  0
   -4.3387    0.7196   -3.1134 C   0  0  0  0  0  0  0  0  0  0  0  0
   -5.5012    1.3028   -3.9095 C   0  0  0  0  0  0  0  0  0  0  0  0
   -5.8717    2.6344   -3.4305 N   0  0  0  0  0  0  0  0  0  0  0  0
   -4.7477    3.5672   -3.5099 C   0  0  0  0  0  0  0  0  0  0  0  0
   -3.5526    3.0817   -2.6967 C   0  0  0  0  0  0  0  0  0  0  0  0
    4.5035   -3.5895    2.5726 H   0  0  0  0  0  0  0  0  0  0  0  0
    3.2440   -4.5626    1.8429 H   0  0  0  0  0  0  0  0  0  0  0  0
    4.6550   -4.0807    0.8753 H   0  0  0  0  0  0  0  0  0  0  0  0
    2.6047   -2.8182    0.3307 H   0  0  0  0  0  0  0  0  0  0  0  0
    6.1963    1.0141    2.2704 H   0  0  0  0  0  0  0  0  0  0  0  0
    6.5998    1.5571   -0.1155 H   0  0  0  0  0  0  0  0  0  0  0  0
    1.2218   -1.3270   -0.1873 H   0  0  0  0  0  0  0  0  0  0  0  0
   -1.5735    1.2976    1.7305 H   0  0  0  0  0  0  0  0  0  0  0  0
    0.4090   -0.5294    5.0388 H   0  0  0  0  0  0  0  0  0  0  0  0
    1.2056   -1.9451    4.5231 H   0  0  0  0  0  0  0  0  0  0  0  0
    0.9405    0.1427   -2.2414 H   0  0  0  0  0  0  0  0  0  0  0  0
   -2.8456    1.0891   -0.3913 H   0  0  0  0  0  0  0  0  0  0  0  0
   -2.7834    1.7388   -4.1792 H   0  0  0  0  0  0  0  0  0  0  0  0
   -4.0562   -0.2545   -3.5311 H   0  0  0  0  0  0  0  0  0  0  0  0
   -4.6616    0.5351   -2.0806 H   0  0  0  0  0  0  0  0  0  0  0  0
   -6.3703    0.6413   -3.8240 H   0  0  0  0  0  0  0  0  0  0  0  0
   -5.2487    1.3491   -4.9757 H   0  0  0  0  0  0  0  0  0  0  0  0
   -6.2013    2.5739   -2.4665 H   0  0  0  0  0  0  0  0  0  0  0  0
   -4.4614    3.7147   -4.5584 H   0  0  0  0  0  0  0  0  0  0  0  0
   -5.0715    4.5445   -3.1353 H   0  0  0  0  0  0  0  0  0  0  0  0
   -2.7142    3.7781   -2.8197 H   0  0  0  0  0  0  0  0  0  0  0  0
   -3.8116    3.0895   -1.6299 H   0  0  0  0  0  0  0  0  0  0  0  0
  1  2  1  0
  2  3  1  0
  3  4  2  0
  4  5  1  0
  5  6  2  0
  6  7  1  0
  7  8  2  0
  8  9  1  0
  7 10  1  0
  4 11  1  0
  2 12  1  0
 12 13  1  0
 13 14  2  0
 14 15  1  0
 15 16  2  0
 16 17  1  0
 17 18  2  0
 18 19  1  0
 15 20  1  0
 20 21  1  0
 21 22  2  0
 22 23  1  0
 23 24  1  0
 23 25  1  0
 25 26  1  0
 26 27  1  0
 27 28  1  0
 28 29  1  0
 29 30  1  0
  8  3  1  0
 18 13  1  0
 24 20  2  0
 30 25  1  0
  1 31  1  0
  1 32  1  0
  1 33  1  0
  2 34  1  6
  5 35  1  0
  6 36  1  0
 14 37  1  0
 16 38  1  0
 19 39  1  0
 19 40  1  0
 21 41  1  0
 24 42  1  0
 25 43  1  0
 26 44  1  0
 26 45  1  0
 27 46  1  0
 27 47  1  0
 28 48  1  0
 29 49  1  0
 29 50  1  0
 30 51  1  0
 30 52  1  0
M  END
>  <energy_abs>  (190) 
25.66144673374897

>  <SMILES>  (190) 
C[C@H](c1c(ccc(c1Cl)F)Cl)Oc2cc(cnc2N)c3cnn(c3)C4CCNCC4

>  <cluster_no>  (190) 
190

>  <fda_drugs_id>  (190) 
KTEIFNKAUNYNJU-GFCCVEGCSA-N

>  <initial_conformation_id>  (190) 
96

>  <minimize_method>  (190) 
MMFF

$$$$

     RDKit          3D

 52 55  0  0  0  0  0  0  0  0999 V2000
    3.0262   -2.0246   -0.8747 C   0  0  0  0  0  0  0  0  0  0  0  0
    3.2125   -0.8667    0.1096 C   0  0  2  0  0  0  0  0  0  0  0  0
    4.6990   -0.6309    0.3796 C   0  0  0  0  0  0  0  0  0  0  0  0
    5.3828    0.4239   -0.2714 C   0  0  0  0  0  0  0  0  0  0  0  0
    6.7437    0.6709   -0.0404 C   0  0  0  0  0  0  0  0  0  0  0  0
    7.4624   -0.1326    0.8352 C   0  0  0  0  0  0  0  0  0  0  0  0
    6.8206   -1.1879    1.4662 C   0  0  0  0  0  0  0  0  0  0  0  0
    5.4607   -1.4508    1.2463 C   0  0  0  0  0  0  0  0  0  0  0  0
    4.8007   -2.8299    2.0652 Cl  0  0  0  0  0  0  0  0  0  0  0  0
    7.5418   -1.9624    2.2914 F   0  0  0  0  0  0  0  0  0  0  0  0
    4.6109    1.4714   -1.4165 Cl  0  0  0  0  0  0  0  0  0  0  0  0
    2.5464   -1.1195    1.3514 O   0  0  0  0  0  0  0  0  0  0  0  0
    1.1904   -0.9672    1.4618 C   0  0  0  0  0  0  0  0  0  0  0  0
    0.3394   -0.4314    0.4946 C   0  0  0  0  0  0  0  0  0  0  0  0
   -1.0333   -0.3323    0.7493 C   0  0  0  0  0  0  0  0  0  0  0  0
   -1.4844   -0.7875    1.9838 C   0  0  0  0  0  0  0  0  0  0  0  0
   -0.6881   -1.3100    2.9444 N   0  0  0  0  0  0  0  0  0  0  0  0
    0.6271   -1.3914    2.6801 C   0  0  0  0  0  0  0  0  0  0  0  0
    1.4505   -1.9406    3.6828 N   0  0  0  0  0  0  0  0  0  0  0  0
   -1.9580    0.2114   -0.2274 C   0  0  0  0  0  0  0  0  0  0  0  0
   -3.3308   -0.0477   -0.4439 C   0  0  0  0  0  0  0  0  0  0  0  0
   -3.8417    0.6740   -1.4434 N   0  0  0  0  0  0  0  0  0  0  0  0
   -2.8025    1.4129   -1.8733 N   0  0  0  0  0  0  0  0  0  0  0  0
   -1.6495    1.1665   -1.1742 C   0  0  0  0  0  0  0  0  0  0  0  0
   -2.9529    2.3634   -2.9740 C   0  0  0  0  0  0  0  0  0  0  0  0
   -3.9573    3.4795   -2.6607 C   0  0  0  0  0  0  0  0  0  0  0  0
   -5.4009    3.0745   -2.9420 C   0  0  0  0  0  0  0  0  0  0  0  0
   -5.5450    2.5650   -4.3067 N   0  0  0  0  0  0  0  0  0  0  0  0
   -4.7337    1.3617   -4.4953 C   0  0  0  0  0  0  0  0  0  0  0  0
   -3.2519    1.6711   -4.3091 C   0  0  0  0  0  0  0  0  0  0  0  0
    3.5755   -1.8474   -1.8052 H   0  0  0  0  0  0  0  0  0  0  0  0
    3.3650   -2.9768   -0.4548 H   0  0  0  0  0  0  0  0  0  0  0  0
    1.9702   -2.1635   -1.1268 H   0  0  0  0  0  0  0  0  0  0  0  0
    2.7905    0.0456   -0.3145 H   0  0  0  0  0  0  0  0  0  0  0  0
    7.2504    1.4887   -0.5489 H   0  0  0  0  0  0  0  0  0  0  0  0
    8.5169    0.0469    1.0219 H   0  0  0  0  0  0  0  0  0  0  0  0
    0.7147   -0.0996   -0.4658 H   0  0  0  0  0  0  0  0  0  0  0  0
   -2.5336   -0.7388    2.2630 H   0  0  0  0  0  0  0  0  0  0  0  0
    1.9358   -2.7386    3.2779 H   0  0  0  0  0  0  0  0  0  0  0  0
    2.1779   -1.2603    3.8889 H   0  0  0  0  0  0  0  0  0  0  0  0
   -3.9809   -0.7369    0.0807 H   0  0  0  0  0  0  0  0  0  0  0  0
   -0.7349    1.6967   -1.4009 H   0  0  0  0  0  0  0  0  0  0  0  0
   -1.9645    2.8343   -3.0660 H   0  0  0  0  0  0  0  0  0  0  0  0
   -3.7150    4.3477   -3.2885 H   0  0  0  0  0  0  0  0  0  0  0  0
   -3.8620    3.8110   -1.6196 H   0  0  0  0  0  0  0  0  0  0  0  0
   -5.7612    2.3383   -2.2153 H   0  0  0  0  0  0  0  0  0  0  0  0
   -6.0414    3.9570   -2.8310 H   0  0  0  0  0  0  0  0  0  0  0  0
   -6.5248    2.3224   -4.4595 H   0  0  0  0  0  0  0  0  0  0  0  0
   -5.0646    0.5623   -3.8231 H   0  0  0  0  0  0  0  0  0  0  0  0
   -4.8904    0.9931   -5.5153 H   0  0  0  0  0  0  0  0  0  0  0  0
   -2.9332    2.3367   -5.1228 H   0  0  0  0  0  0  0  0  0  0  0  0
   -2.6659    0.7496   -4.4124 H   0  0  0  0  0  0  0  0  0  0  0  0
  1  2  1  0
  2  3  1  0
  3  4  2  0
  4  5  1  0
  5  6  2  0
  6  7  1  0
  7  8  2  0
  8  9  1  0
  7 10  1  0
  4 11  1  0
  2 12  1  0
 12 13  1  0
 13 14  2  0
 14 15  1  0
 15 16  2  0
 16 17  1  0
 17 18  2  0
 18 19  1  0
 15 20  1  0
 20 21  1  0
 21 22  2  0
 22 23  1  0
 23 24  1  0
 23 25  1  0
 25 26  1  0
 26 27  1  0
 27 28  1  0
 28 29  1  0
 29 30  1  0
  8  3  1  0
 18 13  1  0
 24 20  2  0
 30 25  1  0
  1 31  1  0
  1 32  1  0
  1 33  1  0
  2 34  1  6
  5 35  1  0
  6 36  1  0
 14 37  1  0
 16 38  1  0
 19 39  1  0
 19 40  1  0
 21 41  1  0
 24 42  1  0
 25 43  1  0
 26 44  1  0
 26 45  1  0
 27 46  1  0
 27 47  1  0
 28 48  1  0
 29 49  1  0
 29 50  1  0
 30 51  1  0
 30 52  1  0
M  END
>  <energy_abs>  (191) 
31.049656209989372

>  <SMILES>  (191) 
C[C@H](c1c(ccc(c1Cl)F)Cl)Oc2cc(cnc2N)c3cnn(c3)C4CCNCC4

>  <cluster_no>  (191) 
191

>  <fda_drugs_id>  (191) 
KTEIFNKAUNYNJU-GFCCVEGCSA-N

>  <initial_conformation_id>  (191) 
95

>  <minimize_method>  (191) 
MMFF

$$$$

     RDKit          3D

 52 55  0  0  0  0  0  0  0  0999 V2000
    3.3534   -1.9367   -0.9119 C   0  0  0  0  0  0  0  0  0  0  0  0
    3.5100   -0.8539    0.1586 C   0  0  2  0  0  0  0  0  0  0  0  0
    4.9735   -0.7357    0.5866 C   0  0  0  0  0  0  0  0  0  0  0  0
    5.7875    0.2968    0.0610 C   0  0  0  0  0  0  0  0  0  0  0  0
    7.1304    0.4391    0.4396 C   0  0  0  0  0  0  0  0  0  0  0  0
    7.7018   -0.4499    1.3408 C   0  0  0  0  0  0  0  0  0  0  0  0
    6.9322   -1.4856    1.8488 C   0  0  0  0  0  0  0  0  0  0  0  0
    5.5883   -1.6448    1.4801 C   0  0  0  0  0  0  0  0  0  0  0  0
    4.7627   -3.0142    2.1525 Cl  0  0  0  0  0  0  0  0  0  0  0  0
    7.5132   -2.3442    2.7008 F   0  0  0  0  0  0  0  0  0  0  0  0
    5.2086    1.4406   -1.1047 Cl  0  0  0  0  0  0  0  0  0  0  0  0
    2.7045   -1.1351    1.3082 O   0  0  0  0  0  0  0  0  0  0  0  0
    1.3585   -0.8843    1.2998 C   0  0  0  0  0  0  0  0  0  0  0  0
    0.6469   -0.2297    0.2929 C   0  0  0  0  0  0  0  0  0  0  0  0
   -0.7338   -0.0367    0.4219 C   0  0  0  0  0  0  0  0  0  0  0  0
   -1.3322   -0.5186    1.5814 C   0  0  0  0  0  0  0  0  0  0  0  0
   -0.6744   -1.1583    2.5765 N   0  0  0  0  0  0  0  0  0  0  0  0
    0.6493   -1.3340    2.4287 C   0  0  0  0  0  0  0  0  0  0  0  0
    1.3303   -1.9957    3.4698 N   0  0  0  0  0  0  0  0  0  0  0  0
   -1.4923    0.6460   -0.6116 C   0  0  0  0  0  0  0  0  0  0  0  0
   -1.0805    1.5592   -1.6108 C   0  0  0  0  0  0  0  0  0  0  0  0
   -2.0835    1.9611   -2.3942 N   0  0  0  0  0  0  0  0  0  0  0  0
   -3.1545    1.3114   -1.8979 N   0  0  0  0  0  0  0  0  0  0  0  0
   -2.8481    0.5083   -0.8329 C   0  0  0  0  0  0  0  0  0  0  0  0
   -4.4727    1.5024   -2.4901 C   0  0  0  0  0  0  0  0  0  0  0  0
   -5.0260    2.9089   -2.2043 C   0  0  0  0  0  0  0  0  0  0  0  0
   -5.8848    3.4358   -3.3514 C   0  0  0  0  0  0  0  0  0  0  0  0
   -6.7029    2.3628   -3.9034 N   0  0  0  0  0  0  0  0  0  0  0  0
   -5.8965    1.3294   -4.5575 C   0  0  0  0  0  0  0  0  0  0  0  0
   -4.4841    1.1881   -3.9886 C   0  0  0  0  0  0  0  0  0  0  0  0
    4.0005   -1.7402   -1.7738 H   0  0  0  0  0  0  0  0  0  0  0  0
    3.5947   -2.9318   -0.5248 H   0  0  0  0  0  0  0  0  0  0  0  0
    2.3205   -1.9928   -1.2696 H   0  0  0  0  0  0  0  0  0  0  0  0
    3.1919    0.1095   -0.2427 H   0  0  0  0  0  0  0  0  0  0  0  0
    7.7375    1.2431    0.0269 H   0  0  0  0  0  0  0  0  0  0  0  0
    8.7406   -0.3512    1.6412 H   0  0  0  0  0  0  0  0  0  0  0  0
    1.1412    0.1287   -0.6013 H   0  0  0  0  0  0  0  0  0  0  0  0
   -2.3953   -0.3973    1.7695 H   0  0  0  0  0  0  0  0  0  0  0  0
    2.0541   -1.3680    3.8095 H   0  0  0  0  0  0  0  0  0  0  0  0
    1.8285   -2.7816    3.0576 H   0  0  0  0  0  0  0  0  0  0  0  0
   -0.0903    1.9533   -1.8009 H   0  0  0  0  0  0  0  0  0  0  0  0
   -3.6112   -0.0822   -0.3439 H   0  0  0  0  0  0  0  0  0  0  0  0
   -5.1290    0.7722   -1.9948 H   0  0  0  0  0  0  0  0  0  0  0  0
   -4.2251    3.6323   -2.0091 H   0  0  0  0  0  0  0  0  0  0  0  0
   -5.6235    2.8653   -1.2844 H   0  0  0  0  0  0  0  0  0  0  0  0
   -6.5348    4.2330   -2.9735 H   0  0  0  0  0  0  0  0  0  0  0  0
   -5.2612    3.8849   -4.1348 H   0  0  0  0  0  0  0  0  0  0  0  0
   -7.3745    2.7421   -4.5724 H   0  0  0  0  0  0  0  0  0  0  0  0
   -6.4293    0.3770   -4.4568 H   0  0  0  0  0  0  0  0  0  0  0  0
   -5.8257    1.5378   -5.6317 H   0  0  0  0  0  0  0  0  0  0  0  0
   -3.8098    1.8726   -4.5209 H   0  0  0  0  0  0  0  0  0  0  0  0
   -4.1087    0.1749   -4.1767 H   0  0  0  0  0  0  0  0  0  0  0  0
  1  2  1  0
  2  3  1  0
  3  4  2  0
  4  5  1  0
  5  6  2  0
  6  7  1  0
  7  8  2  0
  8  9  1  0
  7 10  1  0
  4 11  1  0
  2 12  1  0
 12 13  1  0
 13 14  2  0
 14 15  1  0
 15 16  2  0
 16 17  1  0
 17 18  2  0
 18 19  1  0
 15 20  1  0
 20 21  1  0
 21 22  2  0
 22 23  1  0
 23 24  1  0
 23 25  1  0
 25 26  1  0
 26 27  1  0
 27 28  1  0
 28 29  1  0
 29 30  1  0
  8  3  1  0
 18 13  1  0
 24 20  2  0
 30 25  1  0
  1 31  1  0
  1 32  1  0
  1 33  1  0
  2 34  1  6
  5 35  1  0
  6 36  1  0
 14 37  1  0
 16 38  1  0
 19 39  1  0
 19 40  1  0
 21 41  1  0
 24 42  1  0
 25 43  1  0
 26 44  1  0
 26 45  1  0
 27 46  1  0
 27 47  1  0
 28 48  1  0
 29 49  1  0
 29 50  1  0
 30 51  1  0
 30 52  1  0
M  END
>  <energy_abs>  (192) 
38.07789276861786

>  <SMILES>  (192) 
C[C@H](c1c(ccc(c1Cl)F)Cl)Oc2cc(cnc2N)c3cnn(c3)C4CCNCC4

>  <cluster_no>  (192) 
192

>  <fda_drugs_id>  (192) 
KTEIFNKAUNYNJU-GFCCVEGCSA-N

>  <initial_conformation_id>  (192) 
94

>  <minimize_method>  (192) 
MMFF

$$$$

     RDKit          3D

 52 55  0  0  0  0  0  0  0  0999 V2000
    4.2827   -2.8653   -1.1175 C   0  0  0  0  0  0  0  0  0  0  0  0
    3.6123   -1.7347   -0.3284 C   0  0  2  0  0  0  0  0  0  0  0  0
    4.5970   -0.9913    0.5724 C   0  0  0  0  0  0  0  0  0  0  0  0
    4.9886    0.3361    0.2651 C   0  0  0  0  0  0  0  0  0  0  0  0
    5.8917    1.0418    1.0753 C   0  0  0  0  0  0  0  0  0  0  0  0
    6.4312    0.4458    2.2091 C   0  0  0  0  0  0  0  0  0  0  0  0
    6.0656   -0.8537    2.5289 C   0  0  0  0  0  0  0  0  0  0  0  0
    5.1611   -1.5733    1.7324 C   0  0  0  0  0  0  0  0  0  0  0  0
    4.7782   -3.1814    2.2597 Cl  0  0  0  0  0  0  0  0  0  0  0  0
    6.6048   -1.4123    3.6252 F   0  0  0  0  0  0  0  0  0  0  0  0
    4.4039    1.1885   -1.1267 Cl  0  0  0  0  0  0  0  0  0  0  0  0
    2.5225   -2.2951    0.4299 O   0  0  0  0  0  0  0  0  0  0  0  0
    1.4541   -1.4502    0.6050 C   0  0  0  0  0  0  0  0  0  0  0  0
    0.7729   -0.8787   -0.4720 C   0  0  0  0  0  0  0  0  0  0  0  0
   -0.3280   -0.0533   -0.2371 C   0  0  0  0  0  0  0  0  0  0  0  0
   -0.7023    0.1333    1.0910 C   0  0  0  0  0  0  0  0  0  0  0  0
   -0.0843   -0.4401    2.1534 N   0  0  0  0  0  0  0  0  0  0  0  0
    0.9740   -1.2308    1.9044 C   0  0  0  0  0  0  0  0  0  0  0  0
    1.5819   -1.8570    3.0056 N   0  0  0  0  0  0  0  0  0  0  0  0
   -1.0329    0.5749   -1.3382 C   0  0  0  0  0  0  0  0  0  0  0  0
   -0.5878    0.9382   -2.6301 C   0  0  0  0  0  0  0  0  0  0  0  0
   -1.5502    1.4878   -3.3737 N   0  0  0  0  0  0  0  0  0  0  0  0
   -2.6253    1.4853   -2.5610 N   0  0  0  0  0  0  0  0  0  0  0  0
   -2.3623    0.9461   -1.3315 C   0  0  0  0  0  0  0  0  0  0  0  0
   -3.8880    2.0337   -3.0480 C   0  0  0  0  0  0  0  0  0  0  0  0
   -4.3005    3.2851   -2.2604 C   0  0  0  0  0  0  0  0  0  0  0  0
   -5.7962    3.5303   -2.4067 C   0  0  0  0  0  0  0  0  0  0  0  0
   -6.5943    2.4352   -1.8590 N   0  0  0  0  0  0  0  0  0  0  0  0
   -5.9829    1.1110   -1.9593 C   0  0  0  0  0  0  0  0  0  0  0  0
   -5.0026    0.9770   -3.1193 C   0  0  0  0  0  0  0  0  0  0  0  0
    5.1277   -2.4920   -1.7065 H   0  0  0  0  0  0  0  0  0  0  0  0
    3.5573   -3.3225   -1.8052 H   0  0  0  0  0  0  0  0  0  0  0  0
    4.6417   -3.6766   -0.4762 H   0  0  0  0  0  0  0  0  0  0  0  0
    3.2147   -1.0663   -1.0959 H   0  0  0  0  0  0  0  0  0  0  0  0
    6.1747    2.0638    0.8233 H   0  0  0  0  0  0  0  0  0  0  0  0
    7.1296    0.9823    2.8443 H   0  0  0  0  0  0  0  0  0  0  0  0
    1.0779   -1.1031   -1.4899 H   0  0  0  0  0  0  0  0  0  0  0  0
   -1.5406    0.7695    1.3637 H   0  0  0  0  0  0  0  0  0  0  0  0
    2.5703   -1.6266    3.0024 H   0  0  0  0  0  0  0  0  0  0  0  0
    1.5378   -2.8629    2.8514 H   0  0  0  0  0  0  0  0  0  0  0  0
    0.3983    0.8291   -3.0616 H   0  0  0  0  0  0  0  0  0  0  0  0
   -3.1309    0.8726   -0.5751 H   0  0  0  0  0  0  0  0  0  0  0  0
   -3.6862    2.3433   -4.0842 H   0  0  0  0  0  0  0  0  0  0  0  0
   -4.0517    3.1925   -1.1944 H   0  0  0  0  0  0  0  0  0  0  0  0
   -3.7377    4.1525   -2.6299 H   0  0  0  0  0  0  0  0  0  0  0  0
   -6.0713    4.4579   -1.8924 H   0  0  0  0  0  0  0  0  0  0  0  0
   -6.0424    3.6691   -3.4674 H   0  0  0  0  0  0  0  0  0  0  0  0
   -7.5219    2.4377   -2.2893 H   0  0  0  0  0  0  0  0  0  0  0  0
   -6.7724    0.3580   -2.0587 H   0  0  0  0  0  0  0  0  0  0  0  0
   -5.4735    0.8929   -1.0130 H   0  0  0  0  0  0  0  0  0  0  0  0
   -5.5585    1.1125   -4.0580 H   0  0  0  0  0  0  0  0  0  0  0  0
   -4.5940   -0.0404   -3.1537 H   0  0  0  0  0  0  0  0  0  0  0  0
  1  2  1  0
  2  3  1  0
  3  4  2  0
  4  5  1  0
  5  6  2  0
  6  7  1  0
  7  8  2  0
  8  9  1  0
  7 10  1  0
  4 11  1  0
  2 12  1  0
 12 13  1  0
 13 14  2  0
 14 15  1  0
 15 16  2  0
 16 17  1  0
 17 18  2  0
 18 19  1  0
 15 20  1  0
 20 21  1  0
 21 22  2  0
 22 23  1  0
 23 24  1  0
 23 25  1  0
 25 26  1  0
 26 27  1  0
 27 28  1  0
 28 29  1  0
 29 30  1  0
  8  3  1  0
 18 13  1  0
 24 20  2  0
 30 25  1  0
  1 31  1  0
  1 32  1  0
  1 33  1  0
  2 34  1  6
  5 35  1  0
  6 36  1  0
 14 37  1  0
 16 38  1  0
 19 39  1  0
 19 40  1  0
 21 41  1  0
 24 42  1  0
 25 43  1  0
 26 44  1  0
 26 45  1  0
 27 46  1  0
 27 47  1  0
 28 48  1  0
 29 49  1  0
 29 50  1  0
 30 51  1  0
 30 52  1  0
M  END
>  <energy_abs>  (193) 
39.488483550624665

>  <SMILES>  (193) 
C[C@H](c1c(ccc(c1Cl)F)Cl)Oc2cc(cnc2N)c3cnn(c3)C4CCNCC4

>  <cluster_no>  (193) 
193

>  <fda_drugs_id>  (193) 
KTEIFNKAUNYNJU-GFCCVEGCSA-N

>  <initial_conformation_id>  (193) 
93

>  <minimize_method>  (193) 
MMFF

$$$$

     RDKit          3D

 52 55  0  0  0  0  0  0  0  0999 V2000
    3.8586   -0.9780   -1.2780 C   0  0  0  0  0  0  0  0  0  0  0  0
    3.7692   -0.4876    0.1719 C   0  0  2  0  0  0  0  0  0  0  0  0
    4.9748   -0.9214    1.0014 C   0  0  0  0  0  0  0  0  0  0  0  0
    5.9243    0.0303    1.4488 C   0  0  0  0  0  0  0  0  0  0  0  0
    7.0414   -0.3458    2.2097 C   0  0  0  0  0  0  0  0  0  0  0  0
    7.2473   -1.6822    2.5377 C   0  0  0  0  0  0  0  0  0  0  0  0
    6.3293   -2.6315    2.1188 C   0  0  0  0  0  0  0  0  0  0  0  0
    5.2035   -2.2725    1.3622 C   0  0  0  0  0  0  0  0  0  0  0  0
    4.1317   -3.5603    0.9203 Cl  0  0  0  0  0  0  0  0  0  0  0  0
    6.5505   -3.9137    2.4506 F   0  0  0  0  0  0  0  0  0  0  0  0
    5.7874    1.7216    1.1000 Cl  0  0  0  0  0  0  0  0  0  0  0  0
    2.5745   -0.9768    0.8112 O   0  0  0  0  0  0  0  0  0  0  0  0
    1.5249   -0.1022    0.7048 C   0  0  0  0  0  0  0  0  0  0  0  0
    0.5546   -0.3525   -0.2645 C   0  0  0  0  0  0  0  0  0  0  0  0
   -0.5491    0.4946   -0.3695 C   0  0  0  0  0  0  0  0  0  0  0  0
   -0.6072    1.5549    0.5356 C   0  0  0  0  0  0  0  0  0  0  0  0
    0.3128    1.8035    1.5013 N   0  0  0  0  0  0  0  0  0  0  0  0
    1.3550    0.9631    1.5991 C   0  0  0  0  0  0  0  0  0  0  0  0
    2.2744    1.1974    2.6337 N   0  0  0  0  0  0  0  0  0  0  0  0
   -1.5873    0.2527   -1.3565 C   0  0  0  0  0  0  0  0  0  0  0  0
   -1.9047   -0.9094   -2.0929 C   0  0  0  0  0  0  0  0  0  0  0  0
   -2.9336   -0.7305   -2.9198 N   0  0  0  0  0  0  0  0  0  0  0  0
   -3.3130    0.5470   -2.7042 N   0  0  0  0  0  0  0  0  0  0  0  0
   -2.5172    1.1779   -1.7897 C   0  0  0  0  0  0  0  0  0  0  0  0
   -4.4622    1.0539   -3.4536 C   0  0  0  0  0  0  0  0  0  0  0  0
   -5.7790    0.4731   -2.9222 C   0  0  0  0  0  0  0  0  0  0  0  0
   -6.2721    1.2258   -1.6942 C   0  0  0  0  0  0  0  0  0  0  0  0
   -6.4516    2.6462   -1.9866 N   0  0  0  0  0  0  0  0  0  0  0  0
   -5.1980    3.2723   -2.3923 C   0  0  0  0  0  0  0  0  0  0  0  0
   -4.5542    2.5826   -3.5942 C   0  0  0  0  0  0  0  0  0  0  0  0
    3.0879   -0.4904   -1.8869 H   0  0  0  0  0  0  0  0  0  0  0  0
    3.6793   -2.0522   -1.3744 H   0  0  0  0  0  0  0  0  0  0  0  0
    4.8341   -0.7428   -1.7191 H   0  0  0  0  0  0  0  0  0  0  0  0
    3.7231    0.6045    0.1193 H   0  0  0  0  0  0  0  0  0  0  0  0
    7.7557    0.3955    2.5558 H   0  0  0  0  0  0  0  0  0  0  0  0
    8.1072   -1.9875    3.1249 H   0  0  0  0  0  0  0  0  0  0  0  0
    0.6746   -1.2095   -0.9191 H   0  0  0  0  0  0  0  0  0  0  0  0
   -1.4336    2.2606    0.5371 H   0  0  0  0  0  0  0  0  0  0  0  0
    3.1845    1.4242    2.2408 H   0  0  0  0  0  0  0  0  0  0  0  0
    2.3721    0.3357    3.1665 H   0  0  0  0  0  0  0  0  0  0  0  0
   -1.4295   -1.8817   -2.0632 H   0  0  0  0  0  0  0  0  0  0  0  0
   -2.6638    2.2122   -1.5224 H   0  0  0  0  0  0  0  0  0  0  0  0
   -4.3053    0.6568   -4.4668 H   0  0  0  0  0  0  0  0  0  0  0  0
   -5.6791   -0.5923   -2.6854 H   0  0  0  0  0  0  0  0  0  0  0  0
   -6.5392    0.5424   -3.7091 H   0  0  0  0  0  0  0  0  0  0  0  0
   -5.5851    1.0957   -0.8495 H   0  0  0  0  0  0  0  0  0  0  0  0
   -7.2350    0.8114   -1.3769 H   0  0  0  0  0  0  0  0  0  0  0  0
   -7.1475    2.7582   -2.7250 H   0  0  0  0  0  0  0  0  0  0  0  0
   -5.4006    4.3169   -2.6502 H   0  0  0  0  0  0  0  0  0  0  0  0
   -4.5186    3.3071   -1.5388 H   0  0  0  0  0  0  0  0  0  0  0  0
   -5.1726    2.8027   -4.4773 H   0  0  0  0  0  0  0  0  0  0  0  0
   -3.5680    3.0199   -3.7936 H   0  0  0  0  0  0  0  0  0  0  0  0
  1  2  1  0
  2  3  1  0
  3  4  2  0
  4  5  1  0
  5  6  2  0
  6  7  1  0
  7  8  2  0
  8  9  1  0
  7 10  1  0
  4 11  1  0
  2 12  1  0
 12 13  1  0
 13 14  2  0
 14 15  1  0
 15 16  2  0
 16 17  1  0
 17 18  2  0
 18 19  1  0
 15 20  1  0
 20 21  1  0
 21 22  2  0
 22 23  1  0
 23 24  1  0
 23 25  1  0
 25 26  1  0
 26 27  1  0
 27 28  1  0
 28 29  1  0
 29 30  1  0
  8  3  1  0
 18 13  1  0
 24 20  2  0
 30 25  1  0
  1 31  1  0
  1 32  1  0
  1 33  1  0
  2 34  1  6
  5 35  1  0
  6 36  1  0
 14 37  1  0
 16 38  1  0
 19 39  1  0
 19 40  1  0
 21 41  1  0
 24 42  1  0
 25 43  1  0
 26 44  1  0
 26 45  1  0
 27 46  1  0
 27 47  1  0
 28 48  1  0
 29 49  1  0
 29 50  1  0
 30 51  1  0
 30 52  1  0
M  END
>  <energy_abs>  (194) 
37.56428318690974

>  <SMILES>  (194) 
C[C@H](c1c(ccc(c1Cl)F)Cl)Oc2cc(cnc2N)c3cnn(c3)C4CCNCC4

>  <cluster_no>  (194) 
194

>  <fda_drugs_id>  (194) 
KTEIFNKAUNYNJU-GFCCVEGCSA-N

>  <initial_conformation_id>  (194) 
91

>  <minimize_method>  (194) 
MMFF

$$$$

     RDKit          3D

 52 55  0  0  0  0  0  0  0  0999 V2000
    3.8974   -2.9564   -0.9878 C   0  0  0  0  0  0  0  0  0  0  0  0
    3.4499   -1.7557   -0.1510 C   0  0  2  0  0  0  0  0  0  0  0  0
    4.6343   -1.0441    0.4966 C   0  0  0  0  0  0  0  0  0  0  0  0
    5.0828    0.2000   -0.0073 C   0  0  0  0  0  0  0  0  0  0  0  0
    6.1676    0.8778    0.5682 C   0  0  0  0  0  0  0  0  0  0  0  0
    6.8392    0.3322    1.6542 C   0  0  0  0  0  0  0  0  0  0  0  0
    6.4268   -0.8922    2.1568 C   0  0  0  0  0  0  0  0  0  0  0  0
    5.3442   -1.5835    1.5940 C   0  0  0  0  0  0  0  0  0  0  0  0
    4.9412   -3.1056    2.3175 Cl  0  0  0  0  0  0  0  0  0  0  0  0
    7.0950   -1.4041    3.2018 F   0  0  0  0  0  0  0  0  0  0  0  0
    4.3513    0.9757   -1.3726 Cl  0  0  0  0  0  0  0  0  0  0  0  0
    2.5090   -2.2163    0.8384 O   0  0  0  0  0  0  0  0  0  0  0  0
    1.4502   -1.3685    1.0469 C   0  0  0  0  0  0  0  0  0  0  0  0
    0.5503   -1.0532    0.0266 C   0  0  0  0  0  0  0  0  0  0  0  0
   -0.5332   -0.2140    0.2946 C   0  0  0  0  0  0  0  0  0  0  0  0
   -0.6600    0.2460    1.6025 C   0  0  0  0  0  0  0  0  0  0  0  0
    0.1802   -0.0717    2.6188 N   0  0  0  0  0  0  0  0  0  0  0  0
    1.2110   -0.8865    2.3403 C   0  0  0  0  0  0  0  0  0  0  0  0
    2.0483   -1.2525    3.4070 N   0  0  0  0  0  0  0  0  0  0  0  0
   -1.4829    0.1376   -0.7453 C   0  0  0  0  0  0  0  0  0  0  0  0
   -1.8108   -0.5147   -1.9569 C   0  0  0  0  0  0  0  0  0  0  0  0
   -2.7412    0.1329   -2.6615 N   0  0  0  0  0  0  0  0  0  0  0  0
   -3.0220    1.2099   -1.9027 N   0  0  0  0  0  0  0  0  0  0  0  0
   -2.2896    1.2574   -0.7477 C   0  0  0  0  0  0  0  0  0  0  0  0
   -4.0200    2.1796   -2.3372 C   0  0  0  0  0  0  0  0  0  0  0  0
   -3.7172    2.7392   -3.7296 C   0  0  0  0  0  0  0  0  0  0  0  0
   -4.7405    3.8094   -4.1127 C   0  0  0  0  0  0  0  0  0  0  0  0
   -6.0765    3.5830   -3.5551 N   0  0  0  0  0  0  0  0  0  0  0  0
   -6.3552    2.1674   -3.3486 C   0  0  0  0  0  0  0  0  0  0  0  0
   -5.4448    1.6037   -2.2595 C   0  0  0  0  0  0  0  0  0  0  0  0
    4.6246   -2.6612   -1.7515 H   0  0  0  0  0  0  0  0  0  0  0  0
    4.3419   -3.7492   -0.3794 H   0  0  0  0  0  0  0  0  0  0  0  0
    3.0318   -3.4053   -1.4888 H   0  0  0  0  0  0  0  0  0  0  0  0
    2.9421   -1.0869   -0.8499 H   0  0  0  0  0  0  0  0  0  0  0  0
    6.4946    1.8353    0.1669 H   0  0  0  0  0  0  0  0  0  0  0  0
    7.6800    0.8475    2.1087 H   0  0  0  0  0  0  0  0  0  0  0  0
    0.6939   -1.4695   -0.9653 H   0  0  0  0  0  0  0  0  0  0  0  0
   -1.4800    0.8926    1.9030 H   0  0  0  0  0  0  0  0  0  0  0  0
    2.0545   -2.2694    3.4583 H   0  0  0  0  0  0  0  0  0  0  0  0
    2.9994   -0.9829    3.1817 H   0  0  0  0  0  0  0  0  0  0  0  0
   -1.4148   -1.4398   -2.3553 H   0  0  0  0  0  0  0  0  0  0  0  0
   -2.4051    2.0748   -0.0495 H   0  0  0  0  0  0  0  0  0  0  0  0
   -3.9532    3.0133   -1.6239 H   0  0  0  0  0  0  0  0  0  0  0  0
   -3.7444    1.9309   -4.4728 H   0  0  0  0  0  0  0  0  0  0  0  0
   -2.7057    3.1620   -3.7687 H   0  0  0  0  0  0  0  0  0  0  0  0
   -4.3944    4.7887   -3.7636 H   0  0  0  0  0  0  0  0  0  0  0  0
   -4.7992    3.8678   -5.2062 H   0  0  0  0  0  0  0  0  0  0  0  0
   -6.7761    3.9927   -4.1749 H   0  0  0  0  0  0  0  0  0  0  0  0
   -7.3995    2.0410   -3.0417 H   0  0  0  0  0  0  0  0  0  0  0  0
   -6.2351    1.6106   -4.2863 H   0  0  0  0  0  0  0  0  0  0  0  0
   -5.8601    1.8388   -1.2706 H   0  0  0  0  0  0  0  0  0  0  0  0
   -5.4484    0.5093   -2.3345 H   0  0  0  0  0  0  0  0  0  0  0  0
  1  2  1  0
  2  3  1  0
  3  4  2  0
  4  5  1  0
  5  6  2  0
  6  7  1  0
  7  8  2  0
  8  9  1  0
  7 10  1  0
  4 11  1  0
  2 12  1  0
 12 13  1  0
 13 14  2  0
 14 15  1  0
 15 16  2  0
 16 17  1  0
 17 18  2  0
 18 19  1  0
 15 20  1  0
 20 21  1  0
 21 22  2  0
 22 23  1  0
 23 24  1  0
 23 25  1  0
 25 26  1  0
 26 27  1  0
 27 28  1  0
 28 29  1  0
 29 30  1  0
  8  3  1  0
 18 13  1  0
 24 20  2  0
 30 25  1  0
  1 31  1  0
  1 32  1  0
  1 33  1  0
  2 34  1  6
  5 35  1  0
  6 36  1  0
 14 37  1  0
 16 38  1  0
 19 39  1  0
 19 40  1  0
 21 41  1  0
 24 42  1  0
 25 43  1  0
 26 44  1  0
 26 45  1  0
 27 46  1  0
 27 47  1  0
 28 48  1  0
 29 49  1  0
 29 50  1  0
 30 51  1  0
 30 52  1  0
M  END
>  <energy_abs>  (195) 
38.10352193609688

>  <SMILES>  (195) 
C[C@H](c1c(ccc(c1Cl)F)Cl)Oc2cc(cnc2N)c3cnn(c3)C4CCNCC4

>  <cluster_no>  (195) 
195

>  <fda_drugs_id>  (195) 
KTEIFNKAUNYNJU-GFCCVEGCSA-N

>  <initial_conformation_id>  (195) 
90

>  <minimize_method>  (195) 
MMFF

$$$$

     RDKit          3D

 52 55  0  0  0  0  0  0  0  0999 V2000
    3.4507   -1.3061   -1.9486 C   0  0  0  0  0  0  0  0  0  0  0  0
    3.1725   -0.7932   -0.5348 C   0  0  2  0  0  0  0  0  0  0  0  0
    4.4384   -0.7814    0.3168 C   0  0  0  0  0  0  0  0  0  0  0  0
    5.1104    0.4372    0.5789 C   0  0  0  0  0  0  0  0  0  0  0  0
    6.2609    0.4838    1.3812 C   0  0  0  0  0  0  0  0  0  0  0  0
    6.7745   -0.6815    1.9379 C   0  0  0  0  0  0  0  0  0  0  0  0
    6.1436   -1.8904    1.6788 C   0  0  0  0  0  0  0  0  0  0  0  0
    4.9958   -1.9561    0.8752 C   0  0  0  0  0  0  0  0  0  0  0  0
    4.3264   -3.5346    0.6111 Cl  0  0  0  0  0  0  0  0  0  0  0  0
    6.6664   -3.0047    2.2163 F   0  0  0  0  0  0  0  0  0  0  0  0
    4.5892    1.9543   -0.0807 Cl  0  0  0  0  0  0  0  0  0  0  0  0
    2.1298   -1.6099    0.0425 O   0  0  0  0  0  0  0  0  0  0  0  0
    1.2257   -0.8469    0.7365 C   0  0  0  0  0  0  0  0  0  0  0  0
    0.1777   -0.2384    0.0465 C   0  0  0  0  0  0  0  0  0  0  0  0
   -0.7497    0.5376    0.7427 C   0  0  0  0  0  0  0  0  0  0  0  0
   -0.5649    0.6324    2.1221 C   0  0  0  0  0  0  0  0  0  0  0  0
    0.4299    0.0255    2.8219 N   0  0  0  0  0  0  0  0  0  0  0  0
    1.3013   -0.7192    2.1239 C   0  0  0  0  0  0  0  0  0  0  0  0
    2.3236   -1.3200    2.8576 N   0  0  0  0  0  0  0  0  0  0  0  0
   -1.8452    1.2285    0.0790 C   0  0  0  0  0  0  0  0  0  0  0  0
   -2.8233    2.1179    0.5886 C   0  0  0  0  0  0  0  0  0  0  0  0
   -3.6553    2.5715   -0.3500 N   0  0  0  0  0  0  0  0  0  0  0  0
   -3.2363    1.9565   -1.4800 N   0  0  0  0  0  0  0  0  0  0  0  0
   -2.1463    1.1563   -1.2679 C   0  0  0  0  0  0  0  0  0  0  0  0
   -3.9376    2.2608   -2.7279 C   0  0  0  0  0  0  0  0  0  0  0  0
   -3.1338    2.0180   -4.0167 C   0  0  0  0  0  0  0  0  0  0  0  0
   -3.1289    0.5555   -4.4843 C   0  0  0  0  0  0  0  0  0  0  0  0
   -4.2269   -0.2454   -3.9536 N   0  0  0  0  0  0  0  0  0  0  0  0
   -5.4561    0.5309   -3.8561 C   0  0  0  0  0  0  0  0  0  0  0  0
   -5.3277    1.5935   -2.7682 C   0  0  0  0  0  0  0  0  0  0  0  0
    3.7680   -2.3526   -1.9579 H   0  0  0  0  0  0  0  0  0  0  0  0
    4.2206   -0.7102   -2.4492 H   0  0  0  0  0  0  0  0  0  0  0  0
    2.5344   -1.2608   -2.5475 H   0  0  0  0  0  0  0  0  0  0  0  0
    2.7879    0.2238   -0.6627 H   0  0  0  0  0  0  0  0  0  0  0  0
    6.7585    1.4340    1.5769 H   0  0  0  0  0  0  0  0  0  0  0  0
    7.6599   -0.6589    2.5662 H   0  0  0  0  0  0  0  0  0  0  0  0
    0.1110   -0.3769   -1.0269 H   0  0  0  0  0  0  0  0  0  0  0  0
   -1.2317    1.2202    2.7470 H   0  0  0  0  0  0  0  0  0  0  0  0
    2.3924   -2.3029    2.6205 H   0  0  0  0  0  0  0  0  0  0  0  0
    2.1207   -1.1644    3.8410 H   0  0  0  0  0  0  0  0  0  0  0  0
   -2.9651    2.4694    1.6079 H   0  0  0  0  0  0  0  0  0  0  0  0
   -1.6839    0.6134   -2.0756 H   0  0  0  0  0  0  0  0  0  0  0  0
   -4.0939    3.3510   -2.6683 H   0  0  0  0  0  0  0  0  0  0  0  0
   -2.1024    2.3800   -3.9193 H   0  0  0  0  0  0  0  0  0  0  0  0
   -3.5952    2.6237   -4.8117 H   0  0  0  0  0  0  0  0  0  0  0  0
   -3.1603    0.5374   -5.5800 H   0  0  0  0  0  0  0  0  0  0  0  0
   -2.1833    0.0775   -4.2063 H   0  0  0  0  0  0  0  0  0  0  0  0
   -4.3810   -1.0579   -4.5563 H   0  0  0  0  0  0  0  0  0  0  0  0
   -5.7002    0.9905   -4.8244 H   0  0  0  0  0  0  0  0  0  0  0  0
   -6.2918   -0.1339   -3.6071 H   0  0  0  0  0  0  0  0  0  0  0  0
   -6.0841    2.3690   -2.9597 H   0  0  0  0  0  0  0  0  0  0  0  0
   -5.5864    1.1516   -1.7945 H   0  0  0  0  0  0  0  0  0  0  0  0
  1  2  1  0
  2  3  1  0
  3  4  2  0
  4  5  1  0
  5  6  2  0
  6  7  1  0
  7  8  2  0
  8  9  1  0
  7 10  1  0
  4 11  1  0
  2 12  1  0
 12 13  1  0
 13 14  2  0
 14 15  1  0
 15 16  2  0
 16 17  1  0
 17 18  2  0
 18 19  1  0
 15 20  1  0
 20 21  1  0
 21 22  2  0
 22 23  1  0
 23 24  1  0
 23 25  1  0
 25 26  1  0
 26 27  1  0
 27 28  1  0
 28 29  1  0
 29 30  1  0
  8  3  1  0
 18 13  1  0
 24 20  2  0
 30 25  1  0
  1 31  1  0
  1 32  1  0
  1 33  1  0
  2 34  1  6
  5 35  1  0
  6 36  1  0
 14 37  1  0
 16 38  1  0
 19 39  1  0
 19 40  1  0
 21 41  1  0
 24 42  1  0
 25 43  1  0
 26 44  1  0
 26 45  1  0
 27 46  1  0
 27 47  1  0
 28 48  1  0
 29 49  1  0
 29 50  1  0
 30 51  1  0
 30 52  1  0
M  END
>  <energy_abs>  (196) 
30.58905980935532

>  <SMILES>  (196) 
C[C@H](c1c(ccc(c1Cl)F)Cl)Oc2cc(cnc2N)c3cnn(c3)C4CCNCC4

>  <cluster_no>  (196) 
196

>  <fda_drugs_id>  (196) 
KTEIFNKAUNYNJU-GFCCVEGCSA-N

>  <initial_conformation_id>  (196) 
89

>  <minimize_method>  (196) 
MMFF

$$$$

     RDKit          3D

 52 55  0  0  0  0  0  0  0  0999 V2000
    4.1624   -3.5284   -0.1020 C   0  0  0  0  0  0  0  0  0  0  0  0
    3.1837   -2.3679    0.1065 C   0  0  2  0  0  0  0  0  0  0  0  0
    3.9131   -1.0292    0.0309 C   0  0  0  0  0  0  0  0  0  0  0  0
    3.8398   -0.2419   -1.1428 C   0  0  0  0  0  0  0  0  0  0  0  0
    4.4859    0.9989   -1.2371 C   0  0  0  0  0  0  0  0  0  0  0  0
    5.2334    1.4813   -0.1706 C   0  0  0  0  0  0  0  0  0  0  0  0
    5.3421    0.7151    0.9807 C   0  0  0  0  0  0  0  0  0  0  0  0
    4.7023   -0.5277    1.0923 C   0  0  0  0  0  0  0  0  0  0  0  0
    4.9657   -1.4006    2.5646 Cl  0  0  0  0  0  0  0  0  0  0  0  0
    6.0911    1.1929    1.9866 F   0  0  0  0  0  0  0  0  0  0  0  0
    2.9696   -0.7479   -2.5536 Cl  0  0  0  0  0  0  0  0  0  0  0  0
    2.5111   -2.5859    1.3541 O   0  0  0  0  0  0  0  0  0  0  0  0
    1.3476   -1.9153    1.6312 C   0  0  0  0  0  0  0  0  0  0  0  0
    0.6252   -1.1274    0.7336 C   0  0  0  0  0  0  0  0  0  0  0  0
   -0.5603   -0.5017    1.1369 C   0  0  0  0  0  0  0  0  0  0  0  0
   -0.9678   -0.7146    2.4499 C   0  0  0  0  0  0  0  0  0  0  0  0
   -0.3000   -1.4763    3.3482 N   0  0  0  0  0  0  0  0  0  0  0  0
    0.8373   -2.0620    2.9308 C   0  0  0  0  0  0  0  0  0  0  0  0
    1.5315   -2.7837    3.9013 N   0  0  0  0  0  0  0  0  0  0  0  0
   -1.3342    0.3389    0.2383 C   0  0  0  0  0  0  0  0  0  0  0  0
   -2.3154    1.3232    0.5084 C   0  0  0  0  0  0  0  0  0  0  0  0
   -2.8129    1.8792   -0.5985 N   0  0  0  0  0  0  0  0  0  0  0  0
   -2.1509    1.2574   -1.5922 N   0  0  0  0  0  0  0  0  0  0  0  0
   -1.2579    0.3243   -1.1405 C   0  0  0  0  0  0  0  0  0  0  0  0
   -2.4222    1.5958   -2.9876 C   0  0  0  0  0  0  0  0  0  0  0  0
   -3.8007    1.0731   -3.4163 C   0  0  0  0  0  0  0  0  0  0  0  0
   -4.2947    1.8119   -4.6525 C   0  0  0  0  0  0  0  0  0  0  0  0
   -4.3999    3.2589   -4.4734 N   0  0  0  0  0  0  0  0  0  0  0  0
   -3.5950    3.7949   -3.3730 C   0  0  0  0  0  0  0  0  0  0  0  0
   -2.2450    3.0971   -3.2657 C   0  0  0  0  0  0  0  0  0  0  0  0
    3.6218   -4.4815   -0.0916 H   0  0  0  0  0  0  0  0  0  0  0  0
    4.9076   -3.5914    0.6968 H   0  0  0  0  0  0  0  0  0  0  0  0
    4.6906   -3.4403   -1.0572 H   0  0  0  0  0  0  0  0  0  0  0  0
    2.4402   -2.4783   -0.6876 H   0  0  0  0  0  0  0  0  0  0  0  0
    4.4123    1.5926   -2.1462 H   0  0  0  0  0  0  0  0  0  0  0  0
    5.7404    2.4396   -0.2300 H   0  0  0  0  0  0  0  0  0  0  0  0
    0.9694   -0.9814   -0.2807 H   0  0  0  0  0  0  0  0  0  0  0  0
   -1.8792   -0.2735    2.8444 H   0  0  0  0  0  0  0  0  0  0  0  0
    0.9476   -2.8541    4.7274 H   0  0  0  0  0  0  0  0  0  0  0  0
    1.8578   -3.6718    3.5407 H   0  0  0  0  0  0  0  0  0  0  0  0
   -2.6879    1.6637    1.4662 H   0  0  0  0  0  0  0  0  0  0  0  0
   -0.6679   -0.2601   -1.8326 H   0  0  0  0  0  0  0  0  0  0  0  0
   -1.6546    1.0675   -3.5699 H   0  0  0  0  0  0  0  0  0  0  0  0
   -3.7392   -0.0028   -3.6209 H   0  0  0  0  0  0  0  0  0  0  0  0
   -4.5390    1.1863   -2.6115 H   0  0  0  0  0  0  0  0  0  0  0  0
   -5.2700    1.4150   -4.9559 H   0  0  0  0  0  0  0  0  0  0  0  0
   -3.6114    1.6175   -5.4880 H   0  0  0  0  0  0  0  0  0  0  0  0
   -5.3745    3.5240   -4.3240 H   0  0  0  0  0  0  0  0  0  0  0  0
   -3.4418    4.8657   -3.5460 H   0  0  0  0  0  0  0  0  0  0  0  0
   -4.1467    3.7029   -2.4298 H   0  0  0  0  0  0  0  0  0  0  0  0
   -1.6276    3.5832   -2.5007 H   0  0  0  0  0  0  0  0  0  0  0  0
   -1.7075    3.2231   -4.2155 H   0  0  0  0  0  0  0  0  0  0  0  0
  1  2  1  0
  2  3  1  0
  3  4  2  0
  4  5  1  0
  5  6  2  0
  6  7  1  0
  7  8  2  0
  8  9  1  0
  7 10  1  0
  4 11  1  0
  2 12  1  0
 12 13  1  0
 13 14  2  0
 14 15  1  0
 15 16  2  0
 16 17  1  0
 17 18  2  0
 18 19  1  0
 15 20  1  0
 20 21  1  0
 21 22  2  0
 22 23  1  0
 23 24  1  0
 23 25  1  0
 25 26  1  0
 26 27  1  0
 27 28  1  0
 28 29  1  0
 29 30  1  0
  8  3  1  0
 18 13  1  0
 24 20  2  0
 30 25  1  0
  1 31  1  0
  1 32  1  0
  1 33  1  0
  2 34  1  6
  5 35  1  0
  6 36  1  0
 14 37  1  0
 16 38  1  0
 19 39  1  0
 19 40  1  0
 21 41  1  0
 24 42  1  0
 25 43  1  0
 26 44  1  0
 26 45  1  0
 27 46  1  0
 27 47  1  0
 28 48  1  0
 29 49  1  0
 29 50  1  0
 30 51  1  0
 30 52  1  0
M  END
>  <energy_abs>  (197) 
29.098165974978983

>  <SMILES>  (197) 
C[C@H](c1c(ccc(c1Cl)F)Cl)Oc2cc(cnc2N)c3cnn(c3)C4CCNCC4

>  <cluster_no>  (197) 
197

>  <fda_drugs_id>  (197) 
KTEIFNKAUNYNJU-GFCCVEGCSA-N

>  <initial_conformation_id>  (197) 
88

>  <minimize_method>  (197) 
MMFF

$$$$

     RDKit          3D

 52 55  0  0  0  0  0  0  0  0999 V2000
    4.6736   -2.3549    2.8191 C   0  0  0  0  0  0  0  0  0  0  0  0
    3.6098   -1.9714    1.7879 C   0  0  2  0  0  0  0  0  0  0  0  0
    4.1894   -1.0780    0.6930 C   0  0  0  0  0  0  0  0  0  0  0  0
    4.4579   -1.6072   -0.5916 C   0  0  0  0  0  0  0  0  0  0  0  0
    4.9768   -0.8078   -1.6210 C   0  0  0  0  0  0  0  0  0  0  0  0
    5.2491    0.5354   -1.3965 C   0  0  0  0  0  0  0  0  0  0  0  0
    5.0091    1.0724   -0.1405 C   0  0  0  0  0  0  0  0  0  0  0  0
    4.4914    0.2882    0.9008 C   0  0  0  0  0  0  0  0  0  0  0  0
    4.2573    1.0848    2.4219 Cl  0  0  0  0  0  0  0  0  0  0  0  0
    5.2859    2.3706    0.0553 F   0  0  0  0  0  0  0  0  0  0  0  0
    4.1891   -3.2695   -0.9959 Cl  0  0  0  0  0  0  0  0  0  0  0  0
    2.5195   -1.3285    2.4824 O   0  0  0  0  0  0  0  0  0  0  0  0
    1.3124   -1.5940    1.8877 C   0  0  0  0  0  0  0  0  0  0  0  0
    0.7155   -0.5910    1.1260 C   0  0  0  0  0  0  0  0  0  0  0  0
   -0.5154   -0.8295    0.5127 C   0  0  0  0  0  0  0  0  0  0  0  0
   -1.0846   -2.0839    0.7320 C   0  0  0  0  0  0  0  0  0  0  0  0
   -0.5417   -3.0660    1.4998 N   0  0  0  0  0  0  0  0  0  0  0  0
    0.6389   -2.8024    2.0811 C   0  0  0  0  0  0  0  0  0  0  0  0
    1.1800   -3.8205    2.8683 N   0  0  0  0  0  0  0  0  0  0  0  0
   -1.1477    0.1850   -0.3161 C   0  0  0  0  0  0  0  0  0  0  0  0
   -0.6674    1.4367   -0.7712 C   0  0  0  0  0  0  0  0  0  0  0  0
   -1.5510    2.0902   -1.5275 N   0  0  0  0  0  0  0  0  0  0  0  0
   -2.6143    1.2723   -1.5610 N   0  0  0  0  0  0  0  0  0  0  0  0
   -2.4192    0.1161   -0.8498 C   0  0  0  0  0  0  0  0  0  0  0  0
   -3.8235    1.6354   -2.2966 C   0  0  0  0  0  0  0  0  0  0  0  0
   -3.5794    1.7958   -3.8034 C   0  0  0  0  0  0  0  0  0  0  0  0
   -3.0722    3.1858   -4.1803 C   0  0  0  0  0  0  0  0  0  0  0  0
   -3.9403    4.2375   -3.6486 N   0  0  0  0  0  0  0  0  0  0  0  0
   -3.9741    4.1798   -2.1872 C   0  0  0  0  0  0  0  0  0  0  0  0
   -4.5400    2.8511   -1.6921 C   0  0  0  0  0  0  0  0  0  0  0  0
    5.0492   -1.4889    3.3719 H   0  0  0  0  0  0  0  0  0  0  0  0
    5.5253   -2.8554    2.3459 H   0  0  0  0  0  0  0  0  0  0  0  0
    4.2451   -3.0328    3.5664 H   0  0  0  0  0  0  0  0  0  0  0  0
    3.2524   -2.9148    1.3654 H   0  0  0  0  0  0  0  0  0  0  0  0
    5.1724   -1.2337   -2.6037 H   0  0  0  0  0  0  0  0  0  0  0  0
    5.6500    1.1641   -2.1852 H   0  0  0  0  0  0  0  0  0  0  0  0
    1.2250    0.3619    1.0246 H   0  0  0  0  0  0  0  0  0  0  0  0
   -2.0337   -2.3649    0.2851 H   0  0  0  0  0  0  0  0  0  0  0  0
    0.4811   -4.5566    2.9249 H   0  0  0  0  0  0  0  0  0  0  0  0
    1.4383   -3.4579    3.7805 H   0  0  0  0  0  0  0  0  0  0  0  0
    0.2922    1.9024   -0.5878 H   0  0  0  0  0  0  0  0  0  0  0  0
   -3.1968   -0.6324   -0.7900 H   0  0  0  0  0  0  0  0  0  0  0  0
   -4.4900    0.7711   -2.1690 H   0  0  0  0  0  0  0  0  0  0  0  0
   -4.5300    1.6231   -4.3262 H   0  0  0  0  0  0  0  0  0  0  0  0
   -2.8797    1.0346   -4.1698 H   0  0  0  0  0  0  0  0  0  0  0  0
   -2.0408    3.3392   -3.8450 H   0  0  0  0  0  0  0  0  0  0  0  0
   -3.0499    3.2732   -5.2726 H   0  0  0  0  0  0  0  0  0  0  0  0
   -4.8822    4.1322   -4.0222 H   0  0  0  0  0  0  0  0  0  0  0  0
   -2.9758    4.3667   -1.7773 H   0  0  0  0  0  0  0  0  0  0  0  0
   -4.6080    4.9963   -1.8224 H   0  0  0  0  0  0  0  0  0  0  0  0
   -4.5070    2.8199   -0.5963 H   0  0  0  0  0  0  0  0  0  0  0  0
   -5.6004    2.8021   -1.9740 H   0  0  0  0  0  0  0  0  0  0  0  0
  1  2  1  0
  2  3  1  0
  3  4  2  0
  4  5  1  0
  5  6  2  0
  6  7  1  0
  7  8  2  0
  8  9  1  0
  7 10  1  0
  4 11  1  0
  2 12  1  0
 12 13  1  0
 13 14  2  0
 14 15  1  0
 15 16  2  0
 16 17  1  0
 17 18  2  0
 18 19  1  0
 15 20  1  0
 20 21  1  0
 21 22  2  0
 22 23  1  0
 23 24  1  0
 23 25  1  0
 25 26  1  0
 26 27  1  0
 27 28  1  0
 28 29  1  0
 29 30  1  0
  8  3  1  0
 18 13  1  0
 24 20  2  0
 30 25  1  0
  1 31  1  0
  1 32  1  0
  1 33  1  0
  2 34  1  6
  5 35  1  0
  6 36  1  0
 14 37  1  0
 16 38  1  0
 19 39  1  0
 19 40  1  0
 21 41  1  0
 24 42  1  0
 25 43  1  0
 26 44  1  0
 26 45  1  0
 27 46  1  0
 27 47  1  0
 28 48  1  0
 29 49  1  0
 29 50  1  0
 30 51  1  0
 30 52  1  0
M  END
>  <energy_abs>  (198) 
23.537915920668386

>  <SMILES>  (198) 
C[C@H](c1c(ccc(c1Cl)F)Cl)Oc2cc(cnc2N)c3cnn(c3)C4CCNCC4

>  <cluster_no>  (198) 
198

>  <fda_drugs_id>  (198) 
KTEIFNKAUNYNJU-GFCCVEGCSA-N

>  <initial_conformation_id>  (198) 
87

>  <minimize_method>  (198) 
MMFF

$$$$

     RDKit          3D

 52 55  0  0  0  0  0  0  0  0999 V2000
    4.6204   -3.0466    1.9888 C   0  0  0  0  0  0  0  0  0  0  0  0
    3.5108   -2.2363    1.3130 C   0  0  2  0  0  0  0  0  0  0  0  0
    4.0880   -1.0946    0.4812 C   0  0  0  0  0  0  0  0  0  0  0  0
    4.1330   -1.1925   -0.9298 C   0  0  0  0  0  0  0  0  0  0  0  0
    4.6490   -0.1564   -1.7214 C   0  0  0  0  0  0  0  0  0  0  0  0
    5.1434    0.9991   -1.1291 C   0  0  0  0  0  0  0  0  0  0  0  0
    5.1242    1.1110    0.2532 C   0  0  0  0  0  0  0  0  0  0  0  0
    4.6101    0.0857    1.0604 C   0  0  0  0  0  0  0  0  0  0  0  0
    4.6527    0.3535    2.7725 Cl  0  0  0  0  0  0  0  0  0  0  0  0
    5.6201    2.2305    0.8026 F   0  0  0  0  0  0  0  0  0  0  0  0
    3.5753   -2.5903   -1.7875 Cl  0  0  0  0  0  0  0  0  0  0  0  0
    2.6032   -1.7771    2.3374 O   0  0  0  0  0  0  0  0  0  0  0  0
    1.3094   -1.7340    1.8804 C   0  0  0  0  0  0  0  0  0  0  0  0
    0.8327   -0.5673    1.2858 C   0  0  0  0  0  0  0  0  0  0  0  0
   -0.4791   -0.5286    0.8171 C   0  0  0  0  0  0  0  0  0  0  0  0
   -1.2515   -1.6722    1.0024 C   0  0  0  0  0  0  0  0  0  0  0  0
   -0.8190   -2.8057    1.6108 N   0  0  0  0  0  0  0  0  0  0  0  0
    0.4460   -2.8224    2.0617 C   0  0  0  0  0  0  0  0  0  0  0  0
    0.8838   -3.9840    2.7176 N   0  0  0  0  0  0  0  0  0  0  0  0
   -1.0054    0.6594    0.1789 C   0  0  0  0  0  0  0  0  0  0  0  0
   -0.7353    2.0265    0.4096 C   0  0  0  0  0  0  0  0  0  0  0  0
   -1.4140    2.8308   -0.4128 N   0  0  0  0  0  0  0  0  0  0  0  0
   -2.1310    1.9823   -1.1742 N   0  0  0  0  0  0  0  0  0  0  0  0
   -1.9060    0.6676   -0.8667 C   0  0  0  0  0  0  0  0  0  0  0  0
   -2.9867    2.5199   -2.2243 C   0  0  0  0  0  0  0  0  0  0  0  0
   -4.3824    1.8910   -2.2431 C   0  0  0  0  0  0  0  0  0  0  0  0
   -5.2464    2.5626   -3.3112 C   0  0  0  0  0  0  0  0  0  0  0  0
   -4.5474    2.8643   -4.5636 N   0  0  0  0  0  0  0  0  0  0  0  0
   -3.3034    2.1188   -4.7182 C   0  0  0  0  0  0  0  0  0  0  0  0
   -2.3098    2.4377   -3.6026 C   0  0  0  0  0  0  0  0  0  0  0  0
    5.1761   -2.4561    2.7232 H   0  0  0  0  0  0  0  0  0  0  0  0
    5.3318   -3.4368    1.2528 H   0  0  0  0  0  0  0  0  0  0  0  0
    4.1891   -3.8916    2.5378 H   0  0  0  0  0  0  0  0  0  0  0  0
    2.9721   -2.9489    0.6796 H   0  0  0  0  0  0  0  0  0  0  0  0
    4.6716   -0.2504   -2.8060 H   0  0  0  0  0  0  0  0  0  0  0  0
    5.5490    1.8066   -1.7321 H   0  0  0  0  0  0  0  0  0  0  0  0
    1.4860    0.2933    1.1872 H   0  0  0  0  0  0  0  0  0  0  0  0
   -2.2877   -1.7164    0.6763 H   0  0  0  0  0  0  0  0  0  0  0  0
    1.2490   -3.7085    3.6268 H   0  0  0  0  0  0  0  0  0  0  0  0
    1.6529   -4.3923    2.1993 H   0  0  0  0  0  0  0  0  0  0  0  0
   -0.0757    2.4708    1.1449 H   0  0  0  0  0  0  0  0  0  0  0  0
   -2.3853   -0.1314   -1.4154 H   0  0  0  0  0  0  0  0  0  0  0  0
   -3.1184    3.5841   -1.9775 H   0  0  0  0  0  0  0  0  0  0  0  0
   -4.3163    0.8161   -2.4548 H   0  0  0  0  0  0  0  0  0  0  0  0
   -4.8642    1.9862   -1.2626 H   0  0  0  0  0  0  0  0  0  0  0  0
   -6.1060    1.9186   -3.5318 H   0  0  0  0  0  0  0  0  0  0  0  0
   -5.6581    3.4977   -2.9117 H   0  0  0  0  0  0  0  0  0  0  0  0
   -4.3556    3.8662   -4.6150 H   0  0  0  0  0  0  0  0  0  0  0  0
   -3.5146    1.0419   -4.7480 H   0  0  0  0  0  0  0  0  0  0  0  0
   -2.8534    2.3653   -5.6871 H   0  0  0  0  0  0  0  0  0  0  0  0
   -1.5156    1.6815   -3.6189 H   0  0  0  0  0  0  0  0  0  0  0  0
   -1.8169    3.3967   -3.8102 H   0  0  0  0  0  0  0  0  0  0  0  0
  1  2  1  0
  2  3  1  0
  3  4  2  0
  4  5  1  0
  5  6  2  0
  6  7  1  0
  7  8  2  0
  8  9  1  0
  7 10  1  0
  4 11  1  0
  2 12  1  0
 12 13  1  0
 13 14  2  0
 14 15  1  0
 15 16  2  0
 16 17  1  0
 17 18  2  0
 18 19  1  0
 15 20  1  0
 20 21  1  0
 21 22  2  0
 22 23  1  0
 23 24  1  0
 23 25  1  0
 25 26  1  0
 26 27  1  0
 27 28  1  0
 28 29  1  0
 29 30  1  0
  8  3  1  0
 18 13  1  0
 24 20  2  0
 30 25  1  0
  1 31  1  0
  1 32  1  0
  1 33  1  0
  2 34  1  6
  5 35  1  0
  6 36  1  0
 14 37  1  0
 16 38  1  0
 19 39  1  0
 19 40  1  0
 21 41  1  0
 24 42  1  0
 25 43  1  0
 26 44  1  0
 26 45  1  0
 27 46  1  0
 27 47  1  0
 28 48  1  0
 29 49  1  0
 29 50  1  0
 30 51  1  0
 30 52  1  0
M  END
>  <energy_abs>  (199) 
41.99055698268495

>  <SMILES>  (199) 
C[C@H](c1c(ccc(c1Cl)F)Cl)Oc2cc(cnc2N)c3cnn(c3)C4CCNCC4

>  <cluster_no>  (199) 
199

>  <fda_drugs_id>  (199) 
KTEIFNKAUNYNJU-GFCCVEGCSA-N

>  <initial_conformation_id>  (199) 
86

>  <minimize_method>  (199) 
MMFF

$$$$

     RDKit          3D

 52 55  0  0  0  0  0  0  0  0999 V2000
    2.9045   -0.5648    2.6927 C   0  0  0  0  0  0  0  0  0  0  0  0
    3.4632   -1.4909    1.6003 C   0  0  2  0  0  0  0  0  0  0  0  0
    4.9034   -1.1451    1.2259 C   0  0  0  0  0  0  0  0  0  0  0  0
    5.9555   -2.0626    1.4641 C   0  0  0  0  0  0  0  0  0  0  0  0
    7.2855   -1.7675    1.1200 C   0  0  0  0  0  0  0  0  0  0  0  0
    7.6008   -0.5548    0.5191 C   0  0  0  0  0  0  0  0  0  0  0  0
    6.5826    0.3512    0.2569 C   0  0  0  0  0  0  0  0  0  0  0  0
    5.2492    0.0779    0.6020 C   0  0  0  0  0  0  0  0  0  0  0  0
    4.0823    1.2931    0.2065 Cl  0  0  0  0  0  0  0  0  0  0  0  0
    6.9075    1.5090   -0.3336 F   0  0  0  0  0  0  0  0  0  0  0  0
    5.6972   -3.6186    2.1873 Cl  0  0  0  0  0  0  0  0  0  0  0  0
    2.7161   -1.5259    0.3715 O   0  0  0  0  0  0  0  0  0  0  0  0
    1.3598   -1.6419    0.5039 C   0  0  0  0  0  0  0  0  0  0  0  0
    0.6048   -0.5385    0.1007 C   0  0  0  0  0  0  0  0  0  0  0  0
   -0.7838   -0.6051    0.1413 C   0  0  0  0  0  0  0  0  0  0  0  0
   -1.3470   -1.7862    0.6181 C   0  0  0  0  0  0  0  0  0  0  0  0
   -0.6375   -2.8861    0.9795 N   0  0  0  0  0  0  0  0  0  0  0  0
    0.7022   -2.8262    0.8773 C   0  0  0  0  0  0  0  0  0  0  0  0
    1.3992   -3.9998    1.1790 N   0  0  0  0  0  0  0  0  0  0  0  0
   -1.5879    0.5005   -0.3299 C   0  0  0  0  0  0  0  0  0  0  0  0
   -1.4129    1.8923   -0.1914 C   0  0  0  0  0  0  0  0  0  0  0  0
   -2.3497    2.5957   -0.8369 N   0  0  0  0  0  0  0  0  0  0  0  0
   -3.1132    1.6466   -1.4170 N   0  0  0  0  0  0  0  0  0  0  0  0
   -2.7046    0.3716   -1.1263 C   0  0  0  0  0  0  0  0  0  0  0  0
   -4.1920    2.0236   -2.3190 C   0  0  0  0  0  0  0  0  0  0  0  0
   -5.3428    2.7290   -1.5767 C   0  0  0  0  0  0  0  0  0  0  0  0
   -6.0246    3.7870   -2.4461 C   0  0  0  0  0  0  0  0  0  0  0  0
   -6.1277    3.3272   -3.8257 N   0  0  0  0  0  0  0  0  0  0  0  0
   -4.8217    3.1733   -4.4656 C   0  0  0  0  0  0  0  0  0  0  0  0
   -3.6835    2.8687   -3.4892 C   0  0  0  0  0  0  0  0  0  0  0  0
    2.0244   -1.0265    3.1526 H   0  0  0  0  0  0  0  0  0  0  0  0
    2.5727    0.4025    2.3073 H   0  0  0  0  0  0  0  0  0  0  0  0
    3.6371   -0.3974    3.4908 H   0  0  0  0  0  0  0  0  0  0  0  0
    3.4352   -2.4997    2.0159 H   0  0  0  0  0  0  0  0  0  0  0  0
    8.0785   -2.4930    1.3095 H   0  0  0  0  0  0  0  0  0  0  0  0
    8.6302   -0.3136    0.2491 H   0  0  0  0  0  0  0  0  0  0  0  0
    1.1113    0.3487   -0.2697 H   0  0  0  0  0  0  0  0  0  0  0  0
   -2.4234   -1.9022    0.7132 H   0  0  0  0  0  0  0  0  0  0  0  0
    1.8822   -3.9135    2.0622 H   0  0  0  0  0  0  0  0  0  0  0  0
    2.0797   -4.1729    0.4493 H   0  0  0  0  0  0  0  0  0  0  0  0
   -0.6454    2.4267    0.3503 H   0  0  0  0  0  0  0  0  0  0  0  0
   -3.2121   -0.4934   -1.5302 H   0  0  0  0  0  0  0  0  0  0  0  0
   -4.5773    1.0825   -2.7302 H   0  0  0  0  0  0  0  0  0  0  0  0
   -6.0743    1.9688   -1.2729 H   0  0  0  0  0  0  0  0  0  0  0  0
   -5.0011    3.2091   -0.6503 H   0  0  0  0  0  0  0  0  0  0  0  0
   -5.4790    4.7391   -2.3965 H   0  0  0  0  0  0  0  0  0  0  0  0
   -7.0271    3.9793   -2.0503 H   0  0  0  0  0  0  0  0  0  0  0  0
   -6.7011    3.9721   -4.3729 H   0  0  0  0  0  0  0  0  0  0  0  0
   -4.5725    4.0776   -5.0340 H   0  0  0  0  0  0  0  0  0  0  0  0
   -4.9075    2.3571   -5.1937 H   0  0  0  0  0  0  0  0  0  0  0  0
   -3.2669    3.8136   -3.1140 H   0  0  0  0  0  0  0  0  0  0  0  0
   -2.8674    2.3609   -4.0149 H   0  0  0  0  0  0  0  0  0  0  0  0
  1  2  1  0
  2  3  1  0
  3  4  2  0
  4  5  1  0
  5  6  2  0
  6  7  1  0
  7  8  2  0
  8  9  1  0
  7 10  1  0
  4 11  1  0
  2 12  1  0
 12 13  1  0
 13 14  2  0
 14 15  1  0
 15 16  2  0
 16 17  1  0
 17 18  2  0
 18 19  1  0
 15 20  1  0
 20 21  1  0
 21 22  2  0
 22 23  1  0
 23 24  1  0
 23 25  1  0
 25 26  1  0
 26 27  1  0
 27 28  1  0
 28 29  1  0
 29 30  1  0
  8  3  1  0
 18 13  1  0
 24 20  2  0
 30 25  1  0
  1 31  1  0
  1 32  1  0
  1 33  1  0
  2 34  1  1
  5 35  1  0
  6 36  1  0
 14 37  1  0
 16 38  1  0
 19 39  1  0
 19 40  1  0
 21 41  1  0
 24 42  1  0
 25 43  1  0
 26 44  1  0
 26 45  1  0
 27 46  1  0
 27 47  1  0
 28 48  1  0
 29 49  1  0
 29 50  1  0
 30 51  1  0
 30 52  1  0
M  END
>  <energy_abs>  (200) 
43.164175707715096

>  <SMILES>  (200) 
C[C@H](c1c(ccc(c1Cl)F)Cl)Oc2cc(cnc2N)c3cnn(c3)C4CCNCC4

>  <cluster_no>  (200) 
200

>  <fda_drugs_id>  (200) 
KTEIFNKAUNYNJU-GFCCVEGCSA-N

>  <initial_conformation_id>  (200) 
85

>  <minimize_method>  (200) 
MMFF

$$$$

     RDKit          3D

 52 55  0  0  0  0  0  0  0  0999 V2000
    2.8497   -0.3144    2.5720 C   0  0  0  0  0  0  0  0  0  0  0  0
    3.3979   -1.3171    1.5456 C   0  0  2  0  0  0  0  0  0  0  0  0
    4.7856   -0.9068    1.0505 C   0  0  0  0  0  0  0  0  0  0  0  0
    5.9358   -1.6715    1.3861 C   0  0  0  0  0  0  0  0  0  0  0  0
    7.2158   -1.3098    0.9341 C   0  0  0  0  0  0  0  0  0  0  0  0
    7.3859   -0.1788    0.1368 C   0  0  0  0  0  0  0  0  0  0  0  0
    6.2758    0.5802   -0.2106 C   0  0  0  0  0  0  0  0  0  0  0  0
    4.9883    0.2334    0.2293 C   0  0  0  0  0  0  0  0  0  0  0  0
    3.6870    1.2335   -0.3338 Cl  0  0  0  0  0  0  0  0  0  0  0  0
    6.4501    1.6464   -1.0105 F   0  0  0  0  0  0  0  0  0  0  0  0
    5.8636   -3.1110    2.3553 Cl  0  0  0  0  0  0  0  0  0  0  0  0
    2.5705   -1.5114    0.3838 O   0  0  0  0  0  0  0  0  0  0  0  0
    1.2503   -1.7908    0.6162 C   0  0  0  0  0  0  0  0  0  0  0  0
    0.3414   -0.8664    0.0911 C   0  0  0  0  0  0  0  0  0  0  0  0
   -1.0317   -1.0627    0.2408 C   0  0  0  0  0  0  0  0  0  0  0  0
   -1.4116   -2.2160    0.9234 C   0  0  0  0  0  0  0  0  0  0  0  0
   -0.5524   -3.1487    1.4141 N   0  0  0  0  0  0  0  0  0  0  0  0
    0.7622   -2.9572    1.2198 C   0  0  0  0  0  0  0  0  0  0  0  0
    1.6038   -3.9574    1.7188 N   0  0  0  0  0  0  0  0  0  0  0  0
   -2.0158   -0.1261   -0.2775 C   0  0  0  0  0  0  0  0  0  0  0  0
   -3.4303   -0.2024   -0.3400 C   0  0  0  0  0  0  0  0  0  0  0  0
   -3.9854    0.8739   -0.9036 N   0  0  0  0  0  0  0  0  0  0  0  0
   -2.9375    1.6632   -1.1965 N   0  0  0  0  0  0  0  0  0  0  0  0
   -1.7371    1.1063   -0.8385 C   0  0  0  0  0  0  0  0  0  0  0  0
   -3.1191    2.9275   -1.9086 C   0  0  0  0  0  0  0  0  0  0  0  0
   -4.3924    3.6950   -1.5050 C   0  0  0  0  0  0  0  0  0  0  0  0
   -5.5184    3.4624   -2.5130 C   0  0  0  0  0  0  0  0  0  0  0  0
   -5.1725    3.8673   -3.8801 N   0  0  0  0  0  0  0  0  0  0  0  0
   -3.7477    3.7983   -4.1882 C   0  0  0  0  0  0  0  0  0  0  0  0
   -3.0266    2.6937   -3.4231 C   0  0  0  0  0  0  0  0  0  0  0  0
    2.6266    0.6641    2.1262 H   0  0  0  0  0  0  0  0  0  0  0  0
    1.9079   -0.6699    3.0132 H   0  0  0  0  0  0  0  0  0  0  0  0
    3.5644   -0.1595    3.3894 H   0  0  0  0  0  0  0  0  0  0  0  0
    3.4692   -2.2785    2.0533 H   0  0  0  0  0  0  0  0  0  0  0  0
    8.0864   -1.9273    1.1804 H   0  0  0  0  0  0  0  0  0  0  0  0
    8.3688    0.1026   -0.2320 H   0  0  0  0  0  0  0  0  0  0  0  0
    0.7290    0.0030   -0.4349 H   0  0  0  0  0  0  0  0  0  0  0  0
   -2.4540   -2.4499    1.1126 H   0  0  0  0  0  0  0  0  0  0  0  0
    2.0165   -3.6562    2.5950 H   0  0  0  0  0  0  0  0  0  0  0  0
    2.3365   -4.1566    1.0420 H   0  0  0  0  0  0  0  0  0  0  0  0
   -4.0786   -1.0023   -0.0097 H   0  0  0  0  0  0  0  0  0  0  0  0
   -0.8115    1.6378   -1.0173 H   0  0  0  0  0  0  0  0  0  0  0  0
   -2.2678    3.5466   -1.5953 H   0  0  0  0  0  0  0  0  0  0  0  0
   -4.1626    4.7748   -1.4727 H   0  0  0  0  0  0  0  0  0  0  0  0
   -4.7255    3.4305   -0.4921 H   0  0  0  0  0  0  0  0  0  0  0  0
   -6.4124    4.0155   -2.1963 H   0  0  0  0  0  0  0  0  0  0  0  0
   -5.7992    2.4000   -2.5196 H   0  0  0  0  0  0  0  0  0  0  0  0
   -5.5180    4.8092   -4.0733 H   0  0  0  0  0  0  0  0  0  0  0  0
   -3.2752    4.7619   -3.9563 H   0  0  0  0  0  0  0  0  0  0  0  0
   -3.6301    3.6364   -5.2659 H   0  0  0  0  0  0  0  0  0  0  0  0
   -1.9724    2.6724   -3.7309 H   0  0  0  0  0  0  0  0  0  0  0  0
   -3.4407    1.7140   -3.7038 H   0  0  0  0  0  0  0  0  0  0  0  0
  1  2  1  0
  2  3  1  0
  3  4  2  0
  4  5  1  0
  5  6  2  0
  6  7  1  0
  7  8  2  0
  8  9  1  0
  7 10  1  0
  4 11  1  0
  2 12  1  0
 12 13  1  0
 13 14  2  0
 14 15  1  0
 15 16  2  0
 16 17  1  0
 17 18  2  0
 18 19  1  0
 15 20  1  0
 20 21  1  0
 21 22  2  0
 22 23  1  0
 23 24  1  0
 23 25  1  0
 25 26  1  0
 26 27  1  0
 27 28  1  0
 28 29  1  0
 29 30  1  0
  8  3  1  0
 18 13  1  0
 24 20  2  0
 30 25  1  0
  1 31  1  0
  1 32  1  0
  1 33  1  0
  2 34  1  1
  5 35  1  0
  6 36  1  0
 14 37  1  0
 16 38  1  0
 19 39  1  0
 19 40  1  0
 21 41  1  0
 24 42  1  0
 25 43  1  0
 26 44  1  0
 26 45  1  0
 27 46  1  0
 27 47  1  0
 28 48  1  0
 29 49  1  0
 29 50  1  0
 30 51  1  0
 30 52  1  0
M  END
>  <energy_abs>  (201) 
44.19233213366093

>  <SMILES>  (201) 
C[C@H](c1c(ccc(c1Cl)F)Cl)Oc2cc(cnc2N)c3cnn(c3)C4CCNCC4

>  <cluster_no>  (201) 
201

>  <fda_drugs_id>  (201) 
KTEIFNKAUNYNJU-GFCCVEGCSA-N

>  <initial_conformation_id>  (201) 
83

>  <minimize_method>  (201) 
MMFF

$$$$

     RDKit          3D

 52 55  0  0  0  0  0  0  0  0999 V2000
    3.2191    1.0079    1.3908 C   0  0  0  0  0  0  0  0  0  0  0  0
    3.4582   -0.4949    1.2171 C   0  0  2  0  0  0  0  0  0  0  0  0
    4.9460   -0.8324    1.2939 C   0  0  0  0  0  0  0  0  0  0  0  0
    5.4798   -1.4746    2.4356 C   0  0  0  0  0  0  0  0  0  0  0  0
    6.8420   -1.7979    2.5254 C   0  0  0  0  0  0  0  0  0  0  0  0
    7.7097   -1.4783    1.4881 C   0  0  0  0  0  0  0  0  0  0  0  0
    7.2129   -0.8319    0.3674 C   0  0  0  0  0  0  0  0  0  0  0  0
    5.8531   -0.5077    0.2568 C   0  0  0  0  0  0  0  0  0  0  0  0
    5.3707    0.3083   -1.1952 Cl  0  0  0  0  0  0  0  0  0  0  0  0
    8.0729   -0.5185   -0.6136 F   0  0  0  0  0  0  0  0  0  0  0  0
    4.5119   -1.8997    3.8075 Cl  0  0  0  0  0  0  0  0  0  0  0  0
    2.9496   -0.9851   -0.0376 O   0  0  0  0  0  0  0  0  0  0  0  0
    1.6095   -1.2658    0.0046 C   0  0  0  0  0  0  0  0  0  0  0  0
    0.7191   -0.3163   -0.4944 C   0  0  0  0  0  0  0  0  0  0  0  0
   -0.6481   -0.5896   -0.4925 C   0  0  0  0  0  0  0  0  0  0  0  0
   -1.0380   -1.8350   -0.0043 C   0  0  0  0  0  0  0  0  0  0  0  0
   -0.1860   -2.7886    0.4531 N   0  0  0  0  0  0  0  0  0  0  0  0
    1.1283   -2.5106    0.4303 C   0  0  0  0  0  0  0  0  0  0  0  0
    2.0080   -3.5187    0.8531 N   0  0  0  0  0  0  0  0  0  0  0  0
   -1.6001    0.3834   -0.9906 C   0  0  0  0  0  0  0  0  0  0  0  0
   -1.4516    1.4038   -1.9568 C   0  0  0  0  0  0  0  0  0  0  0  0
   -2.5667    2.1156   -2.1351 N   0  0  0  0  0  0  0  0  0  0  0  0
   -3.4390    1.5655   -1.2699 N   0  0  0  0  0  0  0  0  0  0  0  0
   -2.9071    0.5172   -0.5675 C   0  0  0  0  0  0  0  0  0  0  0  0
   -4.7956    2.0928   -1.1435 C   0  0  0  0  0  0  0  0  0  0  0  0
   -4.8472    3.6299   -1.1351 C   0  0  0  0  0  0  0  0  0  0  0  0
   -5.2005    4.1710   -2.5156 C   0  0  0  0  0  0  0  0  0  0  0  0
   -6.5027    3.7040   -2.9970 N   0  0  0  0  0  0  0  0  0  0  0  0
   -6.9051    2.3967   -2.4781 C   0  0  0  0  0  0  0  0  0  0  0  0
   -5.7182    1.4818   -2.2081 C   0  0  0  0  0  0  0  0  0  0  0  0
    3.5161    1.5838    0.5085 H   0  0  0  0  0  0  0  0  0  0  0  0
    3.7584    1.3989    2.2603 H   0  0  0  0  0  0  0  0  0  0  0  0
    2.1544    1.2073    1.5433 H   0  0  0  0  0  0  0  0  0  0  0  0
    2.9218   -1.0014    2.0248 H   0  0  0  0  0  0  0  0  0  0  0  0
    7.2337   -2.3036    3.4064 H   0  0  0  0  0  0  0  0  0  0  0  0
    8.7685   -1.7216    1.5479 H   0  0  0  0  0  0  0  0  0  0  0  0
    1.1052    0.6277   -0.8693 H   0  0  0  0  0  0  0  0  0  0  0  0
   -2.0828   -2.1347    0.0200 H   0  0  0  0  0  0  0  0  0  0  0  0
    2.5039   -3.2125    1.6834 H   0  0  0  0  0  0  0  0  0  0  0  0
    2.7006   -3.6562    0.1188 H   0  0  0  0  0  0  0  0  0  0  0  0
   -0.5782    1.6549   -2.5453 H   0  0  0  0  0  0  0  0  0  0  0  0
   -3.4930   -0.0177    0.1655 H   0  0  0  0  0  0  0  0  0  0  0  0
   -5.1377    1.7588   -0.1545 H   0  0  0  0  0  0  0  0  0  0  0  0
   -5.6184    3.9562   -0.4228 H   0  0  0  0  0  0  0  0  0  0  0  0
   -3.9058    4.0658   -0.7819 H   0  0  0  0  0  0  0  0  0  0  0  0
   -5.2062    5.2662   -2.4923 H   0  0  0  0  0  0  0  0  0  0  0  0
   -4.4326    3.8843   -3.2439 H   0  0  0  0  0  0  0  0  0  0  0  0
   -7.2236    4.3924   -2.7825 H   0  0  0  0  0  0  0  0  0  0  0  0
   -7.4783    2.5359   -1.5525 H   0  0  0  0  0  0  0  0  0  0  0  0
   -7.5805    1.9227   -3.1976 H   0  0  0  0  0  0  0  0  0  0  0  0
   -6.0737    0.5004   -1.8654 H   0  0  0  0  0  0  0  0  0  0  0  0
   -5.1759    1.2976   -3.1456 H   0  0  0  0  0  0  0  0  0  0  0  0
  1  2  1  0
  2  3  1  0
  3  4  2  0
  4  5  1  0
  5  6  2  0
  6  7  1  0
  7  8  2  0
  8  9  1  0
  7 10  1  0
  4 11  1  0
  2 12  1  0
 12 13  1  0
 13 14  2  0
 14 15  1  0
 15 16  2  0
 16 17  1  0
 17 18  2  0
 18 19  1  0
 15 20  1  0
 20 21  1  0
 21 22  2  0
 22 23  1  0
 23 24  1  0
 23 25  1  0
 25 26  1  0
 26 27  1  0
 27 28  1  0
 28 29  1  0
 29 30  1  0
  8  3  1  0
 18 13  1  0
 24 20  2  0
 30 25  1  0
  1 31  1  0
  1 32  1  0
  1 33  1  0
  2 34  1  1
  5 35  1  0
  6 36  1  0
 14 37  1  0
 16 38  1  0
 19 39  1  0
 19 40  1  0
 21 41  1  0
 24 42  1  0
 25 43  1  0
 26 44  1  0
 26 45  1  0
 27 46  1  0
 27 47  1  0
 28 48  1  0
 29 49  1  0
 29 50  1  0
 30 51  1  0
 30 52  1  0
M  END
>  <energy_abs>  (202) 
41.24410163077504

>  <SMILES>  (202) 
C[C@H](c1c(ccc(c1Cl)F)Cl)Oc2cc(cnc2N)c3cnn(c3)C4CCNCC4

>  <cluster_no>  (202) 
202

>  <fda_drugs_id>  (202) 
KTEIFNKAUNYNJU-GFCCVEGCSA-N

>  <initial_conformation_id>  (202) 
82

>  <minimize_method>  (202) 
MMFF

$$$$

     RDKit          3D

 52 55  0  0  0  0  0  0  0  0999 V2000
    4.1758    1.9243    0.3853 C   0  0  0  0  0  0  0  0  0  0  0  0
    3.5956    0.5138    0.5142 C   0  0  2  0  0  0  0  0  0  0  0  0
    4.5777   -0.4293    1.2005 C   0  0  0  0  0  0  0  0  0  0  0  0
    4.3835   -0.8010    2.5514 C   0  0  0  0  0  0  0  0  0  0  0  0
    5.2563   -1.6846    3.2030 C   0  0  0  0  0  0  0  0  0  0  0  0
    6.3458   -2.2184    2.5278 C   0  0  0  0  0  0  0  0  0  0  0  0
    6.5681   -1.8524    1.2087 C   0  0  0  0  0  0  0  0  0  0  0  0
    5.7095   -0.9656    0.5438 C   0  0  0  0  0  0  0  0  0  0  0  0
    6.1213   -0.5756   -1.0949 Cl  0  0  0  0  0  0  0  0  0  0  0  0
    7.6358   -2.3696    0.5815 F   0  0  0  0  0  0  0  0  0  0  0  0
    3.0822   -0.1817    3.5134 Cl  0  0  0  0  0  0  0  0  0  0  0  0
    3.2308    0.0571   -0.8046 O   0  0  0  0  0  0  0  0  0  0  0  0
    2.0419   -0.6263   -0.7950 C   0  0  0  0  0  0  0  0  0  0  0  0
    0.8444    0.0852   -0.8664 C   0  0  0  0  0  0  0  0  0  0  0  0
   -0.3672   -0.6071   -0.8887 C   0  0  0  0  0  0  0  0  0  0  0  0
   -0.2914   -1.9994   -0.8530 C   0  0  0  0  0  0  0  0  0  0  0  0
    0.8619   -2.7157   -0.8073 N   0  0  0  0  0  0  0  0  0  0  0  0
    2.0125   -2.0223   -0.7967 C   0  0  0  0  0  0  0  0  0  0  0  0
    3.1832   -2.7771   -0.7341 N   0  0  0  0  0  0  0  0  0  0  0  0
   -1.6493    0.0744   -0.9390 C   0  0  0  0  0  0  0  0  0  0  0  0
   -2.9546   -0.3853   -0.6443 C   0  0  0  0  0  0  0  0  0  0  0  0
   -3.8886    0.5509   -0.8227 N   0  0  0  0  0  0  0  0  0  0  0  0
   -3.1925    1.6276   -1.2284 N   0  0  0  0  0  0  0  0  0  0  0  0
   -1.8464    1.3862   -1.3203 C   0  0  0  0  0  0  0  0  0  0  0  0
   -3.8601    2.8921   -1.5336 C   0  0  0  0  0  0  0  0  0  0  0  0
   -4.6529    2.8267   -2.8441 C   0  0  0  0  0  0  0  0  0  0  0  0
   -6.0443    2.2305   -2.6594 C   0  0  0  0  0  0  0  0  0  0  0  0
   -6.7810    2.9448   -1.6159 N   0  0  0  0  0  0  0  0  0  0  0  0
   -6.1056    2.8099   -0.3240 C   0  0  0  0  0  0  0  0  0  0  0  0
   -4.7076    3.4207   -0.3688 C   0  0  0  0  0  0  0  0  0  0  0  0
    5.0536    1.9550   -0.2665 H   0  0  0  0  0  0  0  0  0  0  0  0
    4.4610    2.3287    1.3617 H   0  0  0  0  0  0  0  0  0  0  0  0
    3.4373    2.5960   -0.0651 H   0  0  0  0  0  0  0  0  0  0  0  0
    2.6828    0.6229    1.1092 H   0  0  0  0  0  0  0  0  0  0  0  0
    5.0843   -1.9631    4.2410 H   0  0  0  0  0  0  0  0  0  0  0  0
    7.0252   -2.9076    3.0190 H   0  0  0  0  0  0  0  0  0  0  0  0
    0.8775    1.1691   -0.8939 H   0  0  0  0  0  0  0  0  0  0  0  0
   -1.1847   -2.6184   -0.8711 H   0  0  0  0  0  0  0  0  0  0  0  0
    3.8475   -2.4589   -1.4336 H   0  0  0  0  0  0  0  0  0  0  0  0
    2.9245   -3.7523   -0.8483 H   0  0  0  0  0  0  0  0  0  0  0  0
   -3.2680   -1.3634   -0.3022 H   0  0  0  0  0  0  0  0  0  0  0  0
   -1.1662    2.1583   -1.6516 H   0  0  0  0  0  0  0  0  0  0  0  0
   -3.0379    3.6061   -1.6827 H   0  0  0  0  0  0  0  0  0  0  0  0
   -4.7620    3.8479   -3.2342 H   0  0  0  0  0  0  0  0  0  0  0  0
   -4.1053    2.2588   -3.6060 H   0  0  0  0  0  0  0  0  0  0  0  0
   -6.5956    2.3256   -3.6017 H   0  0  0  0  0  0  0  0  0  0  0  0
   -5.9942    1.1593   -2.4351 H   0  0  0  0  0  0  0  0  0  0  0  0
   -7.7128    2.5345   -1.5379 H   0  0  0  0  0  0  0  0  0  0  0  0
   -6.6954    3.3387    0.4336 H   0  0  0  0  0  0  0  0  0  0  0  0
   -6.0768    1.7600   -0.0131 H   0  0  0  0  0  0  0  0  0  0  0  0
   -4.8112    4.5083   -0.4848 H   0  0  0  0  0  0  0  0  0  0  0  0
   -4.2008    3.2563    0.5901 H   0  0  0  0  0  0  0  0  0  0  0  0
  1  2  1  0
  2  3  1  0
  3  4  2  0
  4  5  1  0
  5  6  2  0
  6  7  1  0
  7  8  2  0
  8  9  1  0
  7 10  1  0
  4 11  1  0
  2 12  1  0
 12 13  1  0
 13 14  2  0
 14 15  1  0
 15 16  2  0
 16 17  1  0
 17 18  2  0
 18 19  1  0
 15 20  1  0
 20 21  1  0
 21 22  2  0
 22 23  1  0
 23 24  1  0
 23 25  1  0
 25 26  1  0
 26 27  1  0
 27 28  1  0
 28 29  1  0
 29 30  1  0
  8  3  1  0
 18 13  1  0
 24 20  2  0
 30 25  1  0
  1 31  1  0
  1 32  1  0
  1 33  1  0
  2 34  1  1
  5 35  1  0
  6 36  1  0
 14 37  1  0
 16 38  1  0
 19 39  1  0
 19 40  1  0
 21 41  1  0
 24 42  1  0
 25 43  1  0
 26 44  1  0
 26 45  1  0
 27 46  1  0
 27 47  1  0
 28 48  1  0
 29 49  1  0
 29 50  1  0
 30 51  1  0
 30 52  1  0
M  END
>  <energy_abs>  (203) 
20.03737476952903

>  <SMILES>  (203) 
C[C@H](c1c(ccc(c1Cl)F)Cl)Oc2cc(cnc2N)c3cnn(c3)C4CCNCC4

>  <cluster_no>  (203) 
203

>  <fda_drugs_id>  (203) 
KTEIFNKAUNYNJU-GFCCVEGCSA-N

>  <initial_conformation_id>  (203) 
81

>  <minimize_method>  (203) 
MMFF

$$$$

     RDKit          3D

 52 55  0  0  0  0  0  0  0  0999 V2000
    4.5209    1.8281    0.3956 C   0  0  0  0  0  0  0  0  0  0  0  0
    3.8196    0.4732    0.5212 C   0  0  2  0  0  0  0  0  0  0  0  0
    4.6975   -0.5394    1.2481 C   0  0  0  0  0  0  0  0  0  0  0  0
    4.4316   -0.8756    2.5962 C   0  0  0  0  0  0  0  0  0  0  0  0
    5.2106   -1.8158    3.2864 C   0  0  0  0  0  0  0  0  0  0  0  0
    6.2783   -2.4401    2.6548 C   0  0  0  0  0  0  0  0  0  0  0  0
    6.5675   -2.1147    1.3381 C   0  0  0  0  0  0  0  0  0  0  0  0
    5.8007   -1.1756    0.6337 C   0  0  0  0  0  0  0  0  0  0  0  0
    6.2873   -0.8508   -0.9984 Cl  0  0  0  0  0  0  0  0  0  0  0  0
    7.6116   -2.7219    0.7528 F   0  0  0  0  0  0  0  0  0  0  0  0
    3.1523   -0.1443    3.5079 Cl  0  0  0  0  0  0  0  0  0  0  0  0
    3.4583    0.0313   -0.8036 O   0  0  0  0  0  0  0  0  0  0  0  0
    2.2031   -0.5199   -0.8279 C   0  0  0  0  0  0  0  0  0  0  0  0
    1.0980    0.3135   -0.9981 C   0  0  0  0  0  0  0  0  0  0  0  0
   -0.1799   -0.2441   -1.0462 C   0  0  0  0  0  0  0  0  0  0  0  0
   -0.2639   -1.6316   -0.9406 C   0  0  0  0  0  0  0  0  0  0  0  0
    0.7988   -2.4663   -0.8003 N   0  0  0  0  0  0  0  0  0  0  0  0
    2.0178   -1.9027   -0.7635 C   0  0  0  0  0  0  0  0  0  0  0  0
    3.0933   -2.7772   -0.6080 N   0  0  0  0  0  0  0  0  0  0  0  0
   -1.3541    0.5923   -1.2074 C   0  0  0  0  0  0  0  0  0  0  0  0
   -1.5005    1.8783   -1.7775 C   0  0  0  0  0  0  0  0  0  0  0  0
   -2.7553    2.3298   -1.7233 N   0  0  0  0  0  0  0  0  0  0  0  0
   -3.4274    1.3338   -1.1174 N   0  0  0  0  0  0  0  0  0  0  0  0
   -2.6290    0.2721   -0.7865 C   0  0  0  0  0  0  0  0  0  0  0  0
   -4.8626    1.4479   -0.8718 C   0  0  0  0  0  0  0  0  0  0  0  0
   -5.6596    1.2188   -2.1640 C   0  0  0  0  0  0  0  0  0  0  0  0
   -7.0503    1.8287   -2.0453 C   0  0  0  0  0  0  0  0  0  0  0  0
   -7.0189    3.2745   -1.8361 N   0  0  0  0  0  0  0  0  0  0  0  0
   -5.8180    3.7678   -1.1603 C   0  0  0  0  0  0  0  0  0  0  0  0
   -5.2428    2.7625   -0.1697 C   0  0  0  0  0  0  0  0  0  0  0  0
    3.8535    2.5524   -0.0850 H   0  0  0  0  0  0  0  0  0  0  0  0
    5.4169    1.7760   -0.2300 H   0  0  0  0  0  0  0  0  0  0  0  0
    4.8098    2.2207    1.3761 H   0  0  0  0  0  0  0  0  0  0  0  0
    2.9016    0.6665    1.0865 H   0  0  0  0  0  0  0  0  0  0  0  0
    4.9852   -2.0638    4.3216 H   0  0  0  0  0  0  0  0  0  0  0  0
    6.8873   -3.1711    3.1769 H   0  0  0  0  0  0  0  0  0  0  0  0
    1.2502    1.3852   -1.0788 H   0  0  0  0  0  0  0  0  0  0  0  0
   -1.2202   -2.1462   -0.9805 H   0  0  0  0  0  0  0  0  0  0  0  0
    2.7297   -3.7222   -0.6903 H   0  0  0  0  0  0  0  0  0  0  0  0
    3.8160   -2.5712   -1.2917 H   0  0  0  0  0  0  0  0  0  0  0  0
   -0.7458    2.5050   -2.2351 H   0  0  0  0  0  0  0  0  0  0  0  0
   -3.0338   -0.5941   -0.2819 H   0  0  0  0  0  0  0  0  0  0  0  0
   -5.1002    0.6349   -0.1717 H   0  0  0  0  0  0  0  0  0  0  0  0
   -5.1454    1.6526   -3.0320 H   0  0  0  0  0  0  0  0  0  0  0  0
   -5.7367    0.1428   -2.3633 H   0  0  0  0  0  0  0  0  0  0  0  0
   -7.5839    1.3537   -1.2126 H   0  0  0  0  0  0  0  0  0  0  0  0
   -7.6272    1.6176   -2.9519 H   0  0  0  0  0  0  0  0  0  0  0  0
   -7.8581    3.5716   -1.3393 H   0  0  0  0  0  0  0  0  0  0  0  0
   -6.0630    4.7008   -0.6403 H   0  0  0  0  0  0  0  0  0  0  0  0
   -5.0673    4.0272   -1.9157 H   0  0  0  0  0  0  0  0  0  0  0  0
   -6.0032    2.5512    0.5944 H   0  0  0  0  0  0  0  0  0  0  0  0
   -4.3900    3.1998    0.3633 H   0  0  0  0  0  0  0  0  0  0  0  0
  1  2  1  0
  2  3  1  0
  3  4  2  0
  4  5  1  0
  5  6  2  0
  6  7  1  0
  7  8  2  0
  8  9  1  0
  7 10  1  0
  4 11  1  0
  2 12  1  0
 12 13  1  0
 13 14  2  0
 14 15  1  0
 15 16  2  0
 16 17  1  0
 17 18  2  0
 18 19  1  0
 15 20  1  0
 20 21  1  0
 21 22  2  0
 22 23  1  0
 23 24  1  0
 23 25  1  0
 25 26  1  0
 26 27  1  0
 27 28  1  0
 28 29  1  0
 29 30  1  0
  8  3  1  0
 18 13  1  0
 24 20  2  0
 30 25  1  0
  1 31  1  0
  1 32  1  0
  1 33  1  0
  2 34  1  1
  5 35  1  0
  6 36  1  0
 14 37  1  0
 16 38  1  0
 19 39  1  0
 19 40  1  0
 21 41  1  0
 24 42  1  0
 25 43  1  0
 26 44  1  0
 26 45  1  0
 27 46  1  0
 27 47  1  0
 28 48  1  0
 29 49  1  0
 29 50  1  0
 30 51  1  0
 30 52  1  0
M  END
>  <energy_abs>  (204) 
28.556495772151138

>  <SMILES>  (204) 
C[C@H](c1c(ccc(c1Cl)F)Cl)Oc2cc(cnc2N)c3cnn(c3)C4CCNCC4

>  <cluster_no>  (204) 
204

>  <fda_drugs_id>  (204) 
KTEIFNKAUNYNJU-GFCCVEGCSA-N

>  <initial_conformation_id>  (204) 
78

>  <minimize_method>  (204) 
MMFF

$$$$

     RDKit          3D

 52 55  0  0  0  0  0  0  0  0999 V2000
    6.0280   -1.5191   -0.4462 C   0  0  0  0  0  0  0  0  0  0  0  0
    4.6426   -0.8706   -0.3993 C   0  0  2  0  0  0  0  0  0  0  0  0
    4.1754   -0.6776    1.0407 C   0  0  0  0  0  0  0  0  0  0  0  0
    4.2578    0.5969    1.6495 C   0  0  0  0  0  0  0  0  0  0  0  0
    3.8184    0.8120    2.9641 C   0  0  0  0  0  0  0  0  0  0  0  0
    3.2969   -0.2376    3.7097 C   0  0  0  0  0  0  0  0  0  0  0  0
    3.2312   -1.5020    3.1432 C   0  0  0  0  0  0  0  0  0  0  0  0
    3.6676   -1.7356    1.8304 C   0  0  0  0  0  0  0  0  0  0  0  0
    3.5549   -3.3661    1.2562 Cl  0  0  0  0  0  0  0  0  0  0  0  0
    2.7347   -2.5024    3.8860 F   0  0  0  0  0  0  0  0  0  0  0  0
    4.9203    1.9770    0.8395 Cl  0  0  0  0  0  0  0  0  0  0  0  0
    3.7434   -1.6894   -1.1754 O   0  0  0  0  0  0  0  0  0  0  0  0
    2.8030   -0.9334   -1.8305 C   0  0  0  0  0  0  0  0  0  0  0  0
    1.6008   -0.6313   -1.1913 C   0  0  0  0  0  0  0  0  0  0  0  0
    0.6303    0.1186   -1.8594 C   0  0  0  0  0  0  0  0  0  0  0  0
    0.9389    0.5067   -3.1621 C   0  0  0  0  0  0  0  0  0  0  0  0
    2.0904    0.1996   -3.8154 N   0  0  0  0  0  0  0  0  0  0  0  0
    3.0015   -0.5330   -3.1563 C   0  0  0  0  0  0  0  0  0  0  0  0
    4.1745   -0.8816   -3.8444 N   0  0  0  0  0  0  0  0  0  0  0  0
   -0.6282    0.4597   -1.2131 C   0  0  0  0  0  0  0  0  0  0  0  0
   -1.1145    0.1495    0.0806 C   0  0  0  0  0  0  0  0  0  0  0  0
   -2.3312    0.6436    0.3144 N   0  0  0  0  0  0  0  0  0  0  0  0
   -2.6484    1.2669   -0.8333 N   0  0  0  0  0  0  0  0  0  0  0  0
   -1.6544    1.1952   -1.7734 C   0  0  0  0  0  0  0  0  0  0  0  0
   -3.9496    1.9103   -0.9995 C   0  0  0  0  0  0  0  0  0  0  0  0
   -5.0071    0.8833   -1.4313 C   0  0  0  0  0  0  0  0  0  0  0  0
   -6.4036    1.3511   -1.0411 C   0  0  0  0  0  0  0  0  0  0  0  0
   -6.5577    1.5046    0.4028 N   0  0  0  0  0  0  0  0  0  0  0  0
   -5.3438    1.9167    1.1096 C   0  0  0  0  0  0  0  0  0  0  0  0
   -4.3871    2.7208    0.2339 C   0  0  0  0  0  0  0  0  0  0  0  0
    6.0346   -2.5155    0.0051 H   0  0  0  0  0  0  0  0  0  0  0  0
    6.7751   -0.9068    0.0721 H   0  0  0  0  0  0  0  0  0  0  0  0
    6.3512   -1.6503   -1.4857 H   0  0  0  0  0  0  0  0  0  0  0  0
    4.7437    0.0936   -0.9095 H   0  0  0  0  0  0  0  0  0  0  0  0
    3.8838    1.8022    3.4123 H   0  0  0  0  0  0  0  0  0  0  0  0
    2.9484   -0.0834    4.7263 H   0  0  0  0  0  0  0  0  0  0  0  0
    1.4335   -0.9972   -0.1841 H   0  0  0  0  0  0  0  0  0  0  0  0
    0.2501    1.0937   -3.7627 H   0  0  0  0  0  0  0  0  0  0  0  0
    4.2686   -1.8946   -3.8029 H   0  0  0  0  0  0  0  0  0  0  0  0
    4.9750   -0.4903   -3.3596 H   0  0  0  0  0  0  0  0  0  0  0  0
   -0.6352   -0.4194    0.8675 H   0  0  0  0  0  0  0  0  0  0  0  0
   -1.7781    1.6596   -2.7410 H   0  0  0  0  0  0  0  0  0  0  0  0
   -3.8083    2.6311   -1.8169 H   0  0  0  0  0  0  0  0  0  0  0  0
   -4.8147   -0.1001   -0.9801 H   0  0  0  0  0  0  0  0  0  0  0  0
   -4.9538    0.7364   -2.5180 H   0  0  0  0  0  0  0  0  0  0  0  0
   -7.1482    0.6329   -1.4013 H   0  0  0  0  0  0  0  0  0  0  0  0
   -6.6199    2.3061   -1.5362 H   0  0  0  0  0  0  0  0  0  0  0  0
   -7.3316    2.1353    0.6115 H   0  0  0  0  0  0  0  0  0  0  0  0
   -5.6290    2.5112    1.9857 H   0  0  0  0  0  0  0  0  0  0  0  0
   -4.8428    1.0223    1.4974 H   0  0  0  0  0  0  0  0  0  0  0  0
   -3.5255    3.0623    0.8216 H   0  0  0  0  0  0  0  0  0  0  0  0
   -4.9041    3.6304   -0.1030 H   0  0  0  0  0  0  0  0  0  0  0  0
  1  2  1  0
  2  3  1  0
  3  4  2  0
  4  5  1  0
  5  6  2  0
  6  7  1  0
  7  8  2  0
  8  9  1  0
  7 10  1  0
  4 11  1  0
  2 12  1  0
 12 13  1  0
 13 14  2  0
 14 15  1  0
 15 16  2  0
 16 17  1  0
 17 18  2  0
 18 19  1  0
 15 20  1  0
 20 21  1  0
 21 22  2  0
 22 23  1  0
 23 24  1  0
 23 25  1  0
 25 26  1  0
 26 27  1  0
 27 28  1  0
 28 29  1  0
 29 30  1  0
  8  3  1  0
 18 13  1  0
 24 20  2  0
 30 25  1  0
  1 31  1  0
  1 32  1  0
  1 33  1  0
  2 34  1  6
  5 35  1  0
  6 36  1  0
 14 37  1  0
 16 38  1  0
 19 39  1  0
 19 40  1  0
 21 41  1  0
 24 42  1  0
 25 43  1  0
 26 44  1  0
 26 45  1  0
 27 46  1  0
 27 47  1  0
 28 48  1  0
 29 49  1  0
 29 50  1  0
 30 51  1  0
 30 52  1  0
M  END
>  <energy_abs>  (205) 
40.206507355014935

>  <SMILES>  (205) 
C[C@H](c1c(ccc(c1Cl)F)Cl)Oc2cc(cnc2N)c3cnn(c3)C4CCNCC4

>  <cluster_no>  (205) 
205

>  <fda_drugs_id>  (205) 
KTEIFNKAUNYNJU-GFCCVEGCSA-N

>  <initial_conformation_id>  (205) 
77

>  <minimize_method>  (205) 
MMFF

$$$$

     RDKit          3D

 52 55  0  0  0  0  0  0  0  0999 V2000
    2.9112   -2.3869    0.2057 C   0  0  0  0  0  0  0  0  0  0  0  0
    3.9395   -1.2596    0.0233 C   0  0  2  0  0  0  0  0  0  0  0  0
    4.9297   -1.2216    1.1875 C   0  0  0  0  0  0  0  0  0  0  0  0
    6.2727   -1.6417    1.0102 C   0  0  0  0  0  0  0  0  0  0  0  0
    7.1842   -1.6411    2.0761 C   0  0  0  0  0  0  0  0  0  0  0  0
    6.7870   -1.2213    3.3439 C   0  0  0  0  0  0  0  0  0  0  0  0
    5.4831   -0.7876    3.5375 C   0  0  0  0  0  0  0  0  0  0  0  0
    4.5551   -0.7893    2.4854 C   0  0  0  0  0  0  0  0  0  0  0  0
    2.9410   -0.2647    2.8769 Cl  0  0  0  0  0  0  0  0  0  0  0  0
    5.1227   -0.3900    4.7699 F   0  0  0  0  0  0  0  0  0  0  0  0
    6.8866   -2.2063   -0.5101 Cl  0  0  0  0  0  0  0  0  0  0  0  0
    3.3883    0.0619   -0.1110 O   0  0  0  0  0  0  0  0  0  0  0  0
    2.4335    0.1997   -1.0817 C   0  0  0  0  0  0  0  0  0  0  0  0
    1.1257    0.4184   -0.6406 C   0  0  0  0  0  0  0  0  0  0  0  0
    0.1008    0.6014   -1.5676 C   0  0  0  0  0  0  0  0  0  0  0  0
    0.4616    0.5574   -2.9099 C   0  0  0  0  0  0  0  0  0  0  0  0
    1.7306    0.3785   -3.3640 N   0  0  0  0  0  0  0  0  0  0  0  0
    2.7105    0.2493   -2.4535 C   0  0  0  0  0  0  0  0  0  0  0  0
    4.0088    0.1177   -2.9551 N   0  0  0  0  0  0  0  0  0  0  0  0
   -1.2594    0.8571   -1.1344 C   0  0  0  0  0  0  0  0  0  0  0  0
   -1.7447    1.4840    0.0370 C   0  0  0  0  0  0  0  0  0  0  0  0
   -3.0773    1.5492    0.0739 N   0  0  0  0  0  0  0  0  0  0  0  0
   -3.4585    0.9386   -1.0632 N   0  0  0  0  0  0  0  0  0  0  0  0
   -2.4037    0.5189   -1.8288 C   0  0  0  0  0  0  0  0  0  0  0  0
   -4.8730    0.7956   -1.3875 C   0  0  0  0  0  0  0  0  0  0  0  0
   -5.7425    0.4704   -0.1666 C   0  0  0  0  0  0  0  0  0  0  0  0
   -7.1973    0.2454   -0.5855 C   0  0  0  0  0  0  0  0  0  0  0  0
   -7.6618    1.1207   -1.6669 N   0  0  0  0  0  0  0  0  0  0  0  0
   -6.8644    2.3426   -1.7815 C   0  0  0  0  0  0  0  0  0  0  0  0
   -5.4051    2.0358   -2.1310 C   0  0  0  0  0  0  0  0  0  0  0  0
    2.2442   -2.2241    1.0579 H   0  0  0  0  0  0  0  0  0  0  0  0
    3.4089   -3.3514    0.3499 H   0  0  0  0  0  0  0  0  0  0  0  0
    2.2671   -2.4782   -0.6739 H   0  0  0  0  0  0  0  0  0  0  0  0
    4.4740   -1.4727   -0.9023 H   0  0  0  0  0  0  0  0  0  0  0  0
    8.2051   -1.9955    1.9213 H   0  0  0  0  0  0  0  0  0  0  0  0
    7.4824   -1.2265    4.1783 H   0  0  0  0  0  0  0  0  0  0  0  0
    0.9249    0.4352    0.4275 H   0  0  0  0  0  0  0  0  0  0  0  0
   -0.2703    0.6950   -3.6988 H   0  0  0  0  0  0  0  0  0  0  0  0
    4.6385    0.7097   -2.4201 H   0  0  0  0  0  0  0  0  0  0  0  0
    4.3208   -0.8418   -2.8850 H   0  0  0  0  0  0  0  0  0  0  0  0
   -1.1811    1.9073    0.8596 H   0  0  0  0  0  0  0  0  0  0  0  0
   -2.5620    0.0191   -2.7746 H   0  0  0  0  0  0  0  0  0  0  0  0
   -4.9255   -0.0631   -2.0715 H   0  0  0  0  0  0  0  0  0  0  0  0
   -5.7019    1.3072    0.5475 H   0  0  0  0  0  0  0  0  0  0  0  0
   -5.3667   -0.4127    0.3736 H   0  0  0  0  0  0  0  0  0  0  0  0
   -7.8456    0.3893    0.2894 H   0  0  0  0  0  0  0  0  0  0  0  0
   -7.3404   -0.8039   -0.8916 H   0  0  0  0  0  0  0  0  0  0  0  0
   -7.6274    0.6226   -2.5558 H   0  0  0  0  0  0  0  0  0  0  0  0
   -7.2942    2.9710   -2.5724 H   0  0  0  0  0  0  0  0  0  0  0  0
   -6.9248    2.9320   -0.8573 H   0  0  0  0  0  0  0  0  0  0  0  0
   -5.3127    1.8602   -3.2107 H   0  0  0  0  0  0  0  0  0  0  0  0
   -4.8034    2.9276   -1.9134 H   0  0  0  0  0  0  0  0  0  0  0  0
  1  2  1  0
  2  3  1  0
  3  4  2  0
  4  5  1  0
  5  6  2  0
  6  7  1  0
  7  8  2  0
  8  9  1  0
  7 10  1  0
  4 11  1  0
  2 12  1  0
 12 13  1  0
 13 14  2  0
 14 15  1  0
 15 16  2  0
 16 17  1  0
 17 18  2  0
 18 19  1  0
 15 20  1  0
 20 21  1  0
 21 22  2  0
 22 23  1  0
 23 24  1  0
 23 25  1  0
 25 26  1  0
 26 27  1  0
 27 28  1  0
 28 29  1  0
 29 30  1  0
  8  3  1  0
 18 13  1  0
 24 20  2  0
 30 25  1  0
  1 31  1  0
  1 32  1  0
  1 33  1  0
  2 34  1  6
  5 35  1  0
  6 36  1  0
 14 37  1  0
 16 38  1  0
 19 39  1  0
 19 40  1  0
 21 41  1  0
 24 42  1  0
 25 43  1  0
 26 44  1  0
 26 45  1  0
 27 46  1  0
 27 47  1  0
 28 48  1  0
 29 49  1  0
 29 50  1  0
 30 51  1  0
 30 52  1  0
M  END
>  <energy_abs>  (206) 
45.24664264314622

>  <SMILES>  (206) 
C[C@H](c1c(ccc(c1Cl)F)Cl)Oc2cc(cnc2N)c3cnn(c3)C4CCNCC4

>  <cluster_no>  (206) 
206

>  <fda_drugs_id>  (206) 
KTEIFNKAUNYNJU-GFCCVEGCSA-N

>  <initial_conformation_id>  (206) 
75

>  <minimize_method>  (206) 
MMFF

$$$$

     RDKit          3D

 52 55  0  0  0  0  0  0  0  0999 V2000
    2.3738   -3.5857    0.2108 C   0  0  0  0  0  0  0  0  0  0  0  0
    3.4465   -2.5433   -0.1325 C   0  0  2  0  0  0  0  0  0  0  0  0
    3.8637   -1.4783    0.8890 C   0  0  0  0  0  0  0  0  0  0  0  0
    5.1965   -0.9826    0.8495 C   0  0  0  0  0  0  0  0  0  0  0  0
    5.6513    0.0095    1.7308 C   0  0  0  0  0  0  0  0  0  0  0  0
    4.7937    0.5444    2.6804 C   0  0  0  0  0  0  0  0  0  0  0  0
    3.4882    0.0803    2.7430 C   0  0  0  0  0  0  0  0  0  0  0  0
    3.0153   -0.9161    1.8705 C   0  0  0  0  0  0  0  0  0  0  0  0
    1.3582   -1.3697    2.0922 Cl  0  0  0  0  0  0  0  0  0  0  0  0
    2.6746    0.6146    3.6652 F   0  0  0  0  0  0  0  0  0  0  0  0
    6.3787   -1.5637   -0.2813 Cl  0  0  0  0  0  0  0  0  0  0  0  0
    3.2578   -2.0865   -1.4943 O   0  0  0  0  0  0  0  0  0  0  0  0
    2.7189   -0.8430   -1.6760 C   0  0  0  0  0  0  0  0  0  0  0  0
    1.4115   -0.5400   -1.3033 C   0  0  0  0  0  0  0  0  0  0  0  0
    0.9138    0.7488   -1.5073 C   0  0  0  0  0  0  0  0  0  0  0  0
    1.7676    1.6686   -2.1076 C   0  0  0  0  0  0  0  0  0  0  0  0
    3.0282    1.3915   -2.5246 N   0  0  0  0  0  0  0  0  0  0  0  0
    3.4790    0.1403   -2.3231 C   0  0  0  0  0  0  0  0  0  0  0  0
    4.7301   -0.1450   -2.8649 N   0  0  0  0  0  0  0  0  0  0  0  0
   -0.4297    1.1249   -1.1199 C   0  0  0  0  0  0  0  0  0  0  0  0
   -0.9512    2.3620   -0.6763 C   0  0  0  0  0  0  0  0  0  0  0  0
   -2.2648    2.3157   -0.4456 N   0  0  0  0  0  0  0  0  0  0  0  0
   -2.5968    1.0447   -0.7428 N   0  0  0  0  0  0  0  0  0  0  0  0
   -1.5285    0.2908   -1.1465 C   0  0  0  0  0  0  0  0  0  0  0  0
   -3.9819    0.6033   -0.6454 C   0  0  0  0  0  0  0  0  0  0  0  0
   -4.8979    1.3872   -1.5929 C   0  0  0  0  0  0  0  0  0  0  0  0
   -6.3398    0.9245   -1.4420 C   0  0  0  0  0  0  0  0  0  0  0  0
   -6.8026    1.0248   -0.0585 N   0  0  0  0  0  0  0  0  0  0  0  0
   -5.9654    0.2400    0.8488 C   0  0  0  0  0  0  0  0  0  0  0  0
   -4.5039    0.6707    0.7933 C   0  0  0  0  0  0  0  0  0  0  0  0
    2.4613   -4.4339   -0.4812 H   0  0  0  0  0  0  0  0  0  0  0  0
    1.3533   -3.2169    0.0764 H   0  0  0  0  0  0  0  0  0  0  0  0
    2.4947   -3.9725    1.2275 H   0  0  0  0  0  0  0  0  0  0  0  0
    4.3294   -3.1915   -0.2086 H   0  0  0  0  0  0  0  0  0  0  0  0
    6.6793    0.3685    1.6769 H   0  0  0  0  0  0  0  0  0  0  0  0
    5.1281    1.3162    3.3676 H   0  0  0  0  0  0  0  0  0  0  0  0
    0.7810   -1.3019   -0.8645 H   0  0  0  0  0  0  0  0  0  0  0  0
    1.4515    2.6892   -2.3087 H   0  0  0  0  0  0  0  0  0  0  0  0
    5.3196   -0.6643   -2.2246 H   0  0  0  0  0  0  0  0  0  0  0  0
    5.1413    0.7200   -3.2029 H   0  0  0  0  0  0  0  0  0  0  0  0
   -0.4296    3.2961   -0.5093 H   0  0  0  0  0  0  0  0  0  0  0  0
   -1.6474   -0.7456   -1.4310 H   0  0  0  0  0  0  0  0  0  0  0  0
   -3.9854   -0.4482   -0.9607 H   0  0  0  0  0  0  0  0  0  0  0  0
   -4.5735    1.2522   -2.6310 H   0  0  0  0  0  0  0  0  0  0  0  0
   -4.8396    2.4619   -1.3863 H   0  0  0  0  0  0  0  0  0  0  0  0
   -6.4479   -0.1075   -1.7925 H   0  0  0  0  0  0  0  0  0  0  0  0
   -6.9863    1.5385   -2.0775 H   0  0  0  0  0  0  0  0  0  0  0  0
   -6.7786    2.0053    0.2303 H   0  0  0  0  0  0  0  0  0  0  0  0
   -6.0573   -0.8254    0.6068 H   0  0  0  0  0  0  0  0  0  0  0  0
   -6.3422    0.3592    1.8701 H   0  0  0  0  0  0  0  0  0  0  0  0
   -4.4086    1.6894    1.1914 H   0  0  0  0  0  0  0  0  0  0  0  0
   -3.9025    0.0226    1.4440 H   0  0  0  0  0  0  0  0  0  0  0  0
  1  2  1  0
  2  3  1  0
  3  4  2  0
  4  5  1  0
  5  6  2  0
  6  7  1  0
  7  8  2  0
  8  9  1  0
  7 10  1  0
  4 11  1  0
  2 12  1  0
 12 13  1  0
 13 14  2  0
 14 15  1  0
 15 16  2  0
 16 17  1  0
 17 18  2  0
 18 19  1  0
 15 20  1  0
 20 21  1  0
 21 22  2  0
 22 23  1  0
 23 24  1  0
 23 25  1  0
 25 26  1  0
 26 27  1  0
 27 28  1  0
 28 29  1  0
 29 30  1  0
  8  3  1  0
 18 13  1  0
 24 20  2  0
 30 25  1  0
  1 31  1  0
  1 32  1  0
  1 33  1  0
  2 34  1  6
  5 35  1  0
  6 36  1  0
 14 37  1  0
 16 38  1  0
 19 39  1  0
 19 40  1  0
 21 41  1  0
 24 42  1  0
 25 43  1  0
 26 44  1  0
 26 45  1  0
 27 46  1  0
 27 47  1  0
 28 48  1  0
 29 49  1  0
 29 50  1  0
 30 51  1  0
 30 52  1  0
M  END
>  <energy_abs>  (207) 
33.34789973947563

>  <SMILES>  (207) 
C[C@H](c1c(ccc(c1Cl)F)Cl)Oc2cc(cnc2N)c3cnn(c3)C4CCNCC4

>  <cluster_no>  (207) 
207

>  <fda_drugs_id>  (207) 
KTEIFNKAUNYNJU-GFCCVEGCSA-N

>  <initial_conformation_id>  (207) 
74

>  <minimize_method>  (207) 
MMFF

$$$$

     RDKit          3D

 52 55  0  0  0  0  0  0  0  0999 V2000
    2.5220   -2.2136    1.4497 C   0  0  0  0  0  0  0  0  0  0  0  0
    3.4662   -1.2974    0.6618 C   0  0  2  0  0  0  0  0  0  0  0  0
    4.8779   -1.2920    1.2423 C   0  0  0  0  0  0  0  0  0  0  0  0
    5.9565   -1.8632    0.5253 C   0  0  0  0  0  0  0  0  0  0  0  0
    7.2614   -1.8723    1.0428 C   0  0  0  0  0  0  0  0  0  0  0  0
    7.5272   -1.3145    2.2876 C   0  0  0  0  0  0  0  0  0  0  0  0
    6.4896   -0.7382    3.0047 C   0  0  0  0  0  0  0  0  0  0  0  0
    5.1793   -0.7168    2.5016 C   0  0  0  0  0  0  0  0  0  0  0  0
    3.9911    0.0665    3.4911 Cl  0  0  0  0  0  0  0  0  0  0  0  0
    6.7749   -0.1848    4.1924 F   0  0  0  0  0  0  0  0  0  0  0  0
    5.7659   -2.5716   -1.0460 Cl  0  0  0  0  0  0  0  0  0  0  0  0
    2.9848    0.0589    0.6423 O   0  0  0  0  0  0  0  0  0  0  0  0
    2.1743    0.3184   -0.4316 C   0  0  0  0  0  0  0  0  0  0  0  0
    0.7942    0.3274   -0.2267 C   0  0  0  0  0  0  0  0  0  0  0  0
   -0.0620    0.6274   -1.2870 C   0  0  0  0  0  0  0  0  0  0  0  0
    0.5456    0.9161   -2.5079 C   0  0  0  0  0  0  0  0  0  0  0  0
    1.8869    0.9401   -2.7248 N   0  0  0  0  0  0  0  0  0  0  0  0
    2.6910    0.6664   -1.6850 C   0  0  0  0  0  0  0  0  0  0  0  0
    4.0735    0.7540   -1.9029 N   0  0  0  0  0  0  0  0  0  0  0  0
   -1.5048    0.6445   -1.1045 C   0  0  0  0  0  0  0  0  0  0  0  0
   -2.2852    0.5899    0.0768 C   0  0  0  0  0  0  0  0  0  0  0  0
   -3.5973    0.6331   -0.1623 N   0  0  0  0  0  0  0  0  0  0  0  0
   -3.6748    0.7137   -1.5031 N   0  0  0  0  0  0  0  0  0  0  0  0
   -2.4478    0.7270   -2.1106 C   0  0  0  0  0  0  0  0  0  0  0  0
   -4.9713    0.7985   -2.1714 C   0  0  0  0  0  0  0  0  0  0  0  0
   -5.4871    2.2441   -2.1718 C   0  0  0  0  0  0  0  0  0  0  0  0
   -7.0027    2.2702   -2.3279 C   0  0  0  0  0  0  0  0  0  0  0  0
   -7.6911    1.6026   -1.2271 N   0  0  0  0  0  0  0  0  0  0  0  0
   -6.9497    0.4915   -0.6291 C   0  0  0  0  0  0  0  0  0  0  0  0
   -6.0038   -0.1933   -1.6099 C   0  0  0  0  0  0  0  0  0  0  0  0
    1.5764   -2.3346    0.9106 H   0  0  0  0  0  0  0  0  0  0  0  0
    2.2600   -1.8062    2.4313 H   0  0  0  0  0  0  0  0  0  0  0  0
    2.9590   -3.2083    1.5887 H   0  0  0  0  0  0  0  0  0  0  0  0
    3.4797   -1.6875   -0.3601 H   0  0  0  0  0  0  0  0  0  0  0  0
    8.0828   -2.3055    0.4698 H   0  0  0  0  0  0  0  0  0  0  0  0
    8.5351   -1.3119    2.6963 H   0  0  0  0  0  0  0  0  0  0  0  0
    0.4107    0.0995    0.7637 H   0  0  0  0  0  0  0  0  0  0  0  0
   -0.0352    1.1638   -3.3918 H   0  0  0  0  0  0  0  0  0  0  0  0
    4.4613    1.3981   -1.2162 H   0  0  0  0  0  0  0  0  0  0  0  0
    4.5040   -0.1513   -1.7529 H   0  0  0  0  0  0  0  0  0  0  0  0
   -1.9540    0.5264    1.1052 H   0  0  0  0  0  0  0  0  0  0  0  0
   -2.3656    0.7932   -3.1857 H   0  0  0  0  0  0  0  0  0  0  0  0
   -4.7783    0.4965   -3.2093 H   0  0  0  0  0  0  0  0  0  0  0  0
   -5.0147    2.8031   -2.9899 H   0  0  0  0  0  0  0  0  0  0  0  0
   -5.2071    2.7669   -1.2447 H   0  0  0  0  0  0  0  0  0  0  0  0
   -7.3529    3.3072   -2.3841 H   0  0  0  0  0  0  0  0  0  0  0  0
   -7.2817    1.7913   -3.2747 H   0  0  0  0  0  0  0  0  0  0  0  0
   -8.6155    1.2955   -1.5314 H   0  0  0  0  0  0  0  0  0  0  0  0
   -6.3906    0.8678    0.2369 H   0  0  0  0  0  0  0  0  0  0  0  0
   -7.6646   -0.2389   -0.2358 H   0  0  0  0  0  0  0  0  0  0  0  0
   -6.5990   -0.5995   -2.4392 H   0  0  0  0  0  0  0  0  0  0  0  0
   -5.5215   -1.0557   -1.1336 H   0  0  0  0  0  0  0  0  0  0  0  0
  1  2  1  0
  2  3  1  0
  3  4  2  0
  4  5  1  0
  5  6  2  0
  6  7  1  0
  7  8  2  0
  8  9  1  0
  7 10  1  0
  4 11  1  0
  2 12  1  0
 12 13  1  0
 13 14  2  0
 14 15  1  0
 15 16  2  0
 16 17  1  0
 17 18  2  0
 18 19  1  0
 15 20  1  0
 20 21  1  0
 21 22  2  0
 22 23  1  0
 23 24  1  0
 23 25  1  0
 25 26  1  0
 26 27  1  0
 27 28  1  0
 28 29  1  0
 29 30  1  0
  8  3  1  0
 18 13  1  0
 24 20  2  0
 30 25  1  0
  1 31  1  0
  1 32  1  0
  1 33  1  0
  2 34  1  6
  5 35  1  0
  6 36  1  0
 14 37  1  0
 16 38  1  0
 19 39  1  0
 19 40  1  0
 21 41  1  0
 24 42  1  0
 25 43  1  0
 26 44  1  0
 26 45  1  0
 27 46  1  0
 27 47  1  0
 28 48  1  0
 29 49  1  0
 29 50  1  0
 30 51  1  0
 30 52  1  0
M  END
>  <energy_abs>  (208) 
41.07003197070971

>  <SMILES>  (208) 
C[C@H](c1c(ccc(c1Cl)F)Cl)Oc2cc(cnc2N)c3cnn(c3)C4CCNCC4

>  <cluster_no>  (208) 
208

>  <fda_drugs_id>  (208) 
KTEIFNKAUNYNJU-GFCCVEGCSA-N

>  <initial_conformation_id>  (208) 
73

>  <minimize_method>  (208) 
MMFF

$$$$

     RDKit          3D

 52 55  0  0  0  0  0  0  0  0999 V2000
    5.4019   -1.5767   -0.3596 C   0  0  0  0  0  0  0  0  0  0  0  0
    4.7338   -0.2731    0.0956 C   0  0  2  0  0  0  0  0  0  0  0  0
    3.6789   -0.3033    1.2060 C   0  0  0  0  0  0  0  0  0  0  0  0
    3.5816    0.8067    2.0877 C   0  0  0  0  0  0  0  0  0  0  0  0
    2.6436    0.8474    3.1306 C   0  0  0  0  0  0  0  0  0  0  0  0
    1.7635   -0.2066    3.3198 C   0  0  0  0  0  0  0  0  0  0  0  0
    1.8166   -1.2899    2.4556 C   0  0  0  0  0  0  0  0  0  0  0  0
    2.7486   -1.3498    1.4050 C   0  0  0  0  0  0  0  0  0  0  0  0
    2.6216   -2.7362    0.3775 Cl  0  0  0  0  0  0  0  0  0  0  0  0
    0.9342   -2.2838    2.6433 F   0  0  0  0  0  0  0  0  0  0  0  0
    4.5912    2.2099    1.9408 Cl  0  0  0  0  0  0  0  0  0  0  0  0
    4.3914    0.6087   -1.0007 O   0  0  0  0  0  0  0  0  0  0  0  0
    3.3751    0.1698   -1.8059 C   0  0  0  0  0  0  0  0  0  0  0  0
    2.0523    0.4498   -1.4667 C   0  0  0  0  0  0  0  0  0  0  0  0
    1.0171    0.0197   -2.2976 C   0  0  0  0  0  0  0  0  0  0  0  0
    1.3875   -0.6338   -3.4713 C   0  0  0  0  0  0  0  0  0  0  0  0
    2.6683   -0.8573   -3.8631 N   0  0  0  0  0  0  0  0  0  0  0  0
    3.6421   -0.4361   -3.0368 C   0  0  0  0  0  0  0  0  0  0  0  0
    4.9499   -0.6654   -3.4672 N   0  0  0  0  0  0  0  0  0  0  0  0
   -0.3784    0.2407   -1.9650 C   0  0  0  0  0  0  0  0  0  0  0  0
   -1.5348    0.2566   -2.7793 C   0  0  0  0  0  0  0  0  0  0  0  0
   -2.6544    0.4809   -2.0873 N   0  0  0  0  0  0  0  0  0  0  0  0
   -2.2241    0.6033   -0.8170 N   0  0  0  0  0  0  0  0  0  0  0  0
   -0.8687    0.4671   -0.6944 C   0  0  0  0  0  0  0  0  0  0  0  0
   -3.1717    0.8494    0.2634 C   0  0  0  0  0  0  0  0  0  0  0  0
   -4.2424   -0.2416    0.3474 C   0  0  0  0  0  0  0  0  0  0  0  0
   -5.1853    0.0160    1.5231 C   0  0  0  0  0  0  0  0  0  0  0  0
   -5.4117    1.4344    1.8092 N   0  0  0  0  0  0  0  0  0  0  0  0
   -5.2495    2.2723    0.6270 C   0  0  0  0  0  0  0  0  0  0  0  0
   -3.7933    2.2535    0.1687 C   0  0  0  0  0  0  0  0  0  0  0  0
    5.6750   -2.2058    0.4950 H   0  0  0  0  0  0  0  0  0  0  0  0
    6.3194   -1.3458   -0.9138 H   0  0  0  0  0  0  0  0  0  0  0  0
    4.7895   -2.1623   -1.0470 H   0  0  0  0  0  0  0  0  0  0  0  0
    5.5943    0.2302    0.5549 H   0  0  0  0  0  0  0  0  0  0  0  0
    2.5956    1.7084    3.7950 H   0  0  0  0  0  0  0  0  0  0  0  0
    1.0323   -0.1905    4.1219 H   0  0  0  0  0  0  0  0  0  0  0  0
    1.8421    1.0114   -0.5631 H   0  0  0  0  0  0  0  0  0  0  0  0
    0.6457   -1.0176   -4.1668 H   0  0  0  0  0  0  0  0  0  0  0  0
    4.8946   -1.0238   -4.4154 H   0  0  0  0  0  0  0  0  0  0  0  0
    5.4991    0.1847   -3.3971 H   0  0  0  0  0  0  0  0  0  0  0  0
   -1.6110    0.1186   -3.8502 H   0  0  0  0  0  0  0  0  0  0  0  0
   -0.3880    0.5304    0.2715 H   0  0  0  0  0  0  0  0  0  0  0  0
   -2.5809    0.8068    1.1905 H   0  0  0  0  0  0  0  0  0  0  0  0
   -4.8247   -0.2683   -0.5836 H   0  0  0  0  0  0  0  0  0  0  0  0
   -3.7807   -1.2308    0.4530 H   0  0  0  0  0  0  0  0  0  0  0  0
   -6.1432   -0.4789    1.3215 H   0  0  0  0  0  0  0  0  0  0  0  0
   -4.7781   -0.4471    2.4287 H   0  0  0  0  0  0  0  0  0  0  0  0
   -6.3459    1.5558    2.2009 H   0  0  0  0  0  0  0  0  0  0  0  0
   -5.5325    3.3033    0.8692 H   0  0  0  0  0  0  0  0  0  0  0  0
   -5.9198    1.9431   -0.1763 H   0  0  0  0  0  0  0  0  0  0  0  0
   -3.7388    2.6612   -0.8485 H   0  0  0  0  0  0  0  0  0  0  0  0
   -3.2019    2.9341    0.7972 H   0  0  0  0  0  0  0  0  0  0  0  0
  1  2  1  0
  2  3  1  0
  3  4  2  0
  4  5  1  0
  5  6  2  0
  6  7  1  0
  7  8  2  0
  8  9  1  0
  7 10  1  0
  4 11  1  0
  2 12  1  0
 12 13  1  0
 13 14  2  0
 14 15  1  0
 15 16  2  0
 16 17  1  0
 17 18  2  0
 18 19  1  0
 15 20  1  0
 20 21  1  0
 21 22  2  0
 22 23  1  0
 23 24  1  0
 23 25  1  0
 25 26  1  0
 26 27  1  0
 27 28  1  0
 28 29  1  0
 29 30  1  0
  8  3  1  0
 18 13  1  0
 24 20  2  0
 30 25  1  0
  1 31  1  0
  1 32  1  0
  1 33  1  0
  2 34  1  1
  5 35  1  0
  6 36  1  0
 14 37  1  0
 16 38  1  0
 19 39  1  0
 19 40  1  0
 21 41  1  0
 24 42  1  0
 25 43  1  0
 26 44  1  0
 26 45  1  0
 27 46  1  0
 27 47  1  0
 28 48  1  0
 29 49  1  0
 29 50  1  0
 30 51  1  0
 30 52  1  0
M  END
>  <energy_abs>  (209) 
35.34844848983149

>  <SMILES>  (209) 
C[C@H](c1c(ccc(c1Cl)F)Cl)Oc2cc(cnc2N)c3cnn(c3)C4CCNCC4

>  <cluster_no>  (209) 
209

>  <fda_drugs_id>  (209) 
KTEIFNKAUNYNJU-GFCCVEGCSA-N

>  <initial_conformation_id>  (209) 
72

>  <minimize_method>  (209) 
MMFF

$$$$

     RDKit          3D

 52 55  0  0  0  0  0  0  0  0999 V2000
    3.7417    1.4512    0.2769 C   0  0  0  0  0  0  0  0  0  0  0  0
    3.2504    0.0622    0.6969 C   0  0  2  0  0  0  0  0  0  0  0  0
    4.1044   -0.5012    1.8336 C   0  0  0  0  0  0  0  0  0  0  0  0
    3.6147   -0.4994    3.1647 C   0  0  0  0  0  0  0  0  0  0  0  0
    4.3710   -1.0171    4.2268 C   0  0  0  0  0  0  0  0  0  0  0  0
    5.6400   -1.5349    3.9960 C   0  0  0  0  0  0  0  0  0  0  0  0
    6.1478   -1.5328    2.7038 C   0  0  0  0  0  0  0  0  0  0  0  0
    5.4046   -1.0223    1.6290 C   0  0  0  0  0  0  0  0  0  0  0  0
    6.1750   -1.0620    0.0764 Cl  0  0  0  0  0  0  0  0  0  0  0  0
    7.3767   -2.0355    2.5074 F   0  0  0  0  0  0  0  0  0  0  0  0
    2.0676    0.1553    3.5964 Cl  0  0  0  0  0  0  0  0  0  0  0  0
    3.2610   -0.8615   -0.3983 O   0  0  0  0  0  0  0  0  0  0  0  0
    2.3369   -0.7281   -1.4027 C   0  0  0  0  0  0  0  0  0  0  0  0
    1.0585   -0.1860   -1.2575 C   0  0  0  0  0  0  0  0  0  0  0  0
    0.1841   -0.1511   -2.3507 C   0  0  0  0  0  0  0  0  0  0  0  0
    0.6496   -0.6798   -3.5523 C   0  0  0  0  0  0  0  0  0  0  0  0
    1.8783   -1.2207   -3.7289 N   0  0  0  0  0  0  0  0  0  0  0  0
    2.6968   -1.2418   -2.6602 C   0  0  0  0  0  0  0  0  0  0  0  0
    3.9812   -1.7301   -2.8965 N   0  0  0  0  0  0  0  0  0  0  0  0
   -1.1496    0.4143   -2.2524 C   0  0  0  0  0  0  0  0  0  0  0  0
   -1.9914    0.9708   -3.2432 C   0  0  0  0  0  0  0  0  0  0  0  0
   -3.1657    1.3778   -2.7564 N   0  0  0  0  0  0  0  0  0  0  0  0
   -3.0879    1.0875   -1.4456 N   0  0  0  0  0  0  0  0  0  0  0  0
   -1.8978    0.5080   -1.0977 C   0  0  0  0  0  0  0  0  0  0  0  0
   -4.1994    1.3838   -0.5496 C   0  0  0  0  0  0  0  0  0  0  0  0
   -4.5540    2.8742   -0.5348 C   0  0  0  0  0  0  0  0  0  0  0  0
   -5.7219    3.1312    0.4123 C   0  0  0  0  0  0  0  0  0  0  0  0
   -6.8796    2.3059    0.0716 N   0  0  0  0  0  0  0  0  0  0  0  0
   -6.5719    0.8779    0.0914 C   0  0  0  0  0  0  0  0  0  0  0  0
   -5.4361    0.5370   -0.8679 C   0  0  0  0  0  0  0  0  0  0  0  0
    3.7942    2.1306    1.1352 H   0  0  0  0  0  0  0  0  0  0  0  0
    4.7300    1.4149   -0.1938 H   0  0  0  0  0  0  0  0  0  0  0  0
    3.0673    1.8947   -0.4636 H   0  0  0  0  0  0  0  0  0  0  0  0
    2.2246    0.1487    1.0545 H   0  0  0  0  0  0  0  0  0  0  0  0
    3.9732   -1.0135    5.2416 H   0  0  0  0  0  0  0  0  0  0  0  0
    6.2359   -1.9368    4.8099 H   0  0  0  0  0  0  0  0  0  0  0  0
    0.7246    0.2135   -0.3087 H   0  0  0  0  0  0  0  0  0  0  0  0
    0.0314   -0.6964   -4.4474 H   0  0  0  0  0  0  0  0  0  0  0  0
    4.2951   -2.3355   -2.1451 H   0  0  0  0  0  0  0  0  0  0  0  0
    4.0031   -2.1535   -3.8195 H   0  0  0  0  0  0  0  0  0  0  0  0
   -1.7983    1.1037   -4.3006 H   0  0  0  0  0  0  0  0  0  0  0  0
   -1.7013    0.2109   -0.0798 H   0  0  0  0  0  0  0  0  0  0  0  0
   -3.8518    1.1104    0.4578 H   0  0  0  0  0  0  0  0  0  0  0  0
   -4.8201    3.2161   -1.5444 H   0  0  0  0  0  0  0  0  0  0  0  0
   -3.6856    3.4682   -0.2225 H   0  0  0  0  0  0  0  0  0  0  0  0
   -5.4192    2.9432    1.4505 H   0  0  0  0  0  0  0  0  0  0  0  0
   -6.0083    4.1871    0.3503 H   0  0  0  0  0  0  0  0  0  0  0  0
   -7.6435    2.5016    0.7189 H   0  0  0  0  0  0  0  0  0  0  0  0
   -7.4678    0.3181   -0.1994 H   0  0  0  0  0  0  0  0  0  0  0  0
   -6.3161    0.5627    1.1108 H   0  0  0  0  0  0  0  0  0  0  0  0
   -5.1960   -0.5306   -0.7899 H   0  0  0  0  0  0  0  0  0  0  0  0
   -5.7636    0.7095   -1.9022 H   0  0  0  0  0  0  0  0  0  0  0  0
  1  2  1  0
  2  3  1  0
  3  4  2  0
  4  5  1  0
  5  6  2  0
  6  7  1  0
  7  8  2  0
  8  9  1  0
  7 10  1  0
  4 11  1  0
  2 12  1  0
 12 13  1  0
 13 14  2  0
 14 15  1  0
 15 16  2  0
 16 17  1  0
 17 18  2  0
 18 19  1  0
 15 20  1  0
 20 21  1  0
 21 22  2  0
 22 23  1  0
 23 24  1  0
 23 25  1  0
 25 26  1  0
 26 27  1  0
 27 28  1  0
 28 29  1  0
 29 30  1  0
  8  3  1  0
 18 13  1  0
 24 20  2  0
 30 25  1  0
  1 31  1  0
  1 32  1  0
  1 33  1  0
  2 34  1  1
  5 35  1  0
  6 36  1  0
 14 37  1  0
 16 38  1  0
 19 39  1  0
 19 40  1  0
 21 41  1  0
 24 42  1  0
 25 43  1  0
 26 44  1  0
 26 45  1  0
 27 46  1  0
 27 47  1  0
 28 48  1  0
 29 49  1  0
 29 50  1  0
 30 51  1  0
 30 52  1  0
M  END
>  <energy_abs>  (210) 
25.973823325325455

>  <SMILES>  (210) 
C[C@H](c1c(ccc(c1Cl)F)Cl)Oc2cc(cnc2N)c3cnn(c3)C4CCNCC4

>  <cluster_no>  (210) 
210

>  <fda_drugs_id>  (210) 
KTEIFNKAUNYNJU-GFCCVEGCSA-N

>  <initial_conformation_id>  (210) 
71

>  <minimize_method>  (210) 
MMFF

$$$$

     RDKit          3D

 52 55  0  0  0  0  0  0  0  0999 V2000
    4.6495    1.0092   -0.4976 C   0  0  0  0  0  0  0  0  0  0  0  0
    3.7004   -0.0038    0.1519 C   0  0  2  0  0  0  0  0  0  0  0  0
    4.2905   -0.5984    1.4269 C   0  0  0  0  0  0  0  0  0  0  0  0
    5.3639   -1.5205    1.4086 C   0  0  0  0  0  0  0  0  0  0  0  0
    5.8847   -2.0594    2.5956 C   0  0  0  0  0  0  0  0  0  0  0  0
    5.3570   -1.6936    3.8277 C   0  0  0  0  0  0  0  0  0  0  0  0
    4.3111   -0.7853    3.8697 C   0  0  0  0  0  0  0  0  0  0  0  0
    3.7784   -0.2364    2.6951 C   0  0  0  0  0  0  0  0  0  0  0  0
    2.4825    0.9017    2.8851 Cl  0  0  0  0  0  0  0  0  0  0  0  0
    3.8193   -0.4398    5.0693 F   0  0  0  0  0  0  0  0  0  0  0  0
    6.1315   -2.0563   -0.0485 Cl  0  0  0  0  0  0  0  0  0  0  0  0
    3.3832   -1.0753   -0.7531 O   0  0  0  0  0  0  0  0  0  0  0  0
    2.3977   -0.7832   -1.6598 C   0  0  0  0  0  0  0  0  0  0  0  0
    1.1017   -0.4581   -1.2562 C   0  0  0  0  0  0  0  0  0  0  0  0
    0.1265   -0.1817   -2.2166 C   0  0  0  0  0  0  0  0  0  0  0  0
    0.5163   -0.2741   -3.5509 C   0  0  0  0  0  0  0  0  0  0  0  0
    1.7593   -0.6197   -3.9726 N   0  0  0  0  0  0  0  0  0  0  0  0
    2.6782   -0.8809   -3.0264 C   0  0  0  0  0  0  0  0  0  0  0  0
    3.9170   -1.3199   -3.4852 N   0  0  0  0  0  0  0  0  0  0  0  0
   -1.2331    0.1756   -1.8546 C   0  0  0  0  0  0  0  0  0  0  0  0
   -2.4404    0.0824   -2.5855 C   0  0  0  0  0  0  0  0  0  0  0  0
   -3.4949    0.5391   -1.9066 N   0  0  0  0  0  0  0  0  0  0  0  0
   -2.9731    0.9260   -0.7255 N   0  0  0  0  0  0  0  0  0  0  0  0
   -1.6195    0.7314   -0.6517 C   0  0  0  0  0  0  0  0  0  0  0  0
   -3.8187    1.5029    0.3213 C   0  0  0  0  0  0  0  0  0  0  0  0
   -4.1295    2.9765    0.0416 C   0  0  0  0  0  0  0  0  0  0  0  0
   -5.1299    3.1571   -1.1044 C   0  0  0  0  0  0  0  0  0  0  0  0
   -6.0691    2.0438   -1.2711 N   0  0  0  0  0  0  0  0  0  0  0  0
   -6.3499    1.3801   -0.0031 C   0  0  0  0  0  0  0  0  0  0  0  0
   -5.1059    0.6933    0.5652 C   0  0  0  0  0  0  0  0  0  0  0  0
    4.9570    1.7798    0.2172 H   0  0  0  0  0  0  0  0  0  0  0  0
    4.1566    1.5062   -1.3404 H   0  0  0  0  0  0  0  0  0  0  0  0
    5.5482    0.5404   -0.9072 H   0  0  0  0  0  0  0  0  0  0  0  0
    2.7856    0.5406    0.3929 H   0  0  0  0  0  0  0  0  0  0  0  0
    6.7074   -2.7717    2.5602 H   0  0  0  0  0  0  0  0  0  0  0  0
    5.7530   -2.1071    4.7501 H   0  0  0  0  0  0  0  0  0  0  0  0
    0.8531   -0.4542   -0.1999 H   0  0  0  0  0  0  0  0  0  0  0  0
   -0.1772   -0.0674   -4.3620 H   0  0  0  0  0  0  0  0  0  0  0  0
    4.6894   -0.8806   -3.0014 H   0  0  0  0  0  0  0  0  0  0  0  0
    3.9418   -1.2246   -4.4946 H   0  0  0  0  0  0  0  0  0  0  0  0
   -2.5988   -0.3020   -3.5853 H   0  0  0  0  0  0  0  0  0  0  0  0
   -1.0641    1.0126    0.2323 H   0  0  0  0  0  0  0  0  0  0  0  0
   -3.2119    1.4447    1.2350 H   0  0  0  0  0  0  0  0  0  0  0  0
   -4.5548    3.4178    0.9528 H   0  0  0  0  0  0  0  0  0  0  0  0
   -3.2132    3.5374   -0.1786 H   0  0  0  0  0  0  0  0  0  0  0  0
   -4.5905    3.2991   -2.0486 H   0  0  0  0  0  0  0  0  0  0  0  0
   -5.6951    4.0820   -0.9409 H   0  0  0  0  0  0  0  0  0  0  0  0
   -5.6096    1.3568   -1.8871 H   0  0  0  0  0  0  0  0  0  0  0  0
   -6.7521    2.1043    0.7165 H   0  0  0  0  0  0  0  0  0  0  0  0
   -7.1372    0.6325   -0.1520 H   0  0  0  0  0  0  0  0  0  0  0  0
   -5.0169   -0.3221    0.1592 H   0  0  0  0  0  0  0  0  0  0  0  0
   -5.2547    0.5753    1.6463 H   0  0  0  0  0  0  0  0  0  0  0  0
  1  2  1  0
  2  3  1  0
  3  4  2  0
  4  5  1  0
  5  6  2  0
  6  7  1  0
  7  8  2  0
  8  9  1  0
  7 10  1  0
  4 11  1  0
  2 12  1  0
 12 13  1  0
 13 14  2  0
 14 15  1  0
 15 16  2  0
 16 17  1  0
 17 18  2  0
 18 19  1  0
 15 20  1  0
 20 21  1  0
 21 22  2  0
 22 23  1  0
 23 24  1  0
 23 25  1  0
 25 26  1  0
 26 27  1  0
 27 28  1  0
 28 29  1  0
 29 30  1  0
  8  3  1  0
 18 13  1  0
 24 20  2  0
 30 25  1  0
  1 31  1  0
  1 32  1  0
  1 33  1  0
  2 34  1  1
  5 35  1  0
  6 36  1  0
 14 37  1  0
 16 38  1  0
 19 39  1  0
 19 40  1  0
 21 41  1  0
 24 42  1  0
 25 43  1  0
 26 44  1  0
 26 45  1  0
 27 46  1  0
 27 47  1  0
 28 48  1  0
 29 49  1  0
 29 50  1  0
 30 51  1  0
 30 52  1  0
M  END
>  <energy_abs>  (211) 
31.496404771948644

>  <SMILES>  (211) 
C[C@H](c1c(ccc(c1Cl)F)Cl)Oc2cc(cnc2N)c3cnn(c3)C4CCNCC4

>  <cluster_no>  (211) 
211

>  <fda_drugs_id>  (211) 
KTEIFNKAUNYNJU-GFCCVEGCSA-N

>  <initial_conformation_id>  (211) 
70

>  <minimize_method>  (211) 
MMFF

$$$$

     RDKit          3D

 52 55  0  0  0  0  0  0  0  0999 V2000
    2.1593   -3.6020    0.8714 C   0  0  0  0  0  0  0  0  0  0  0  0
    3.2728   -2.6953    0.3401 C   0  0  2  0  0  0  0  0  0  0  0  0
    3.6755   -1.4135    1.0794 C   0  0  0  0  0  0  0  0  0  0  0  0
    5.0091   -0.9395    0.9372 C   0  0  0  0  0  0  0  0  0  0  0  0
    5.4481    0.2462    1.5430 C   0  0  0  0  0  0  0  0  0  0  0  0
    4.5784    0.9959    2.3195 C   0  0  0  0  0  0  0  0  0  0  0  0
    3.2751    0.5535    2.4843 C   0  0  0  0  0  0  0  0  0  0  0  0
    2.8149   -0.6309    1.8819 C   0  0  0  0  0  0  0  0  0  0  0  0
    1.1615   -1.0248    2.2010 Cl  0  0  0  0  0  0  0  0  0  0  0  0
    2.4549    1.2924    3.2489 F   0  0  0  0  0  0  0  0  0  0  0  0
    6.2096   -1.7905    0.0172 Cl  0  0  0  0  0  0  0  0  0  0  0  0
    3.1523   -2.5832   -1.1015 O   0  0  0  0  0  0  0  0  0  0  0  0
    2.6383   -1.4211   -1.6121 C   0  0  0  0  0  0  0  0  0  0  0  0
    1.3437   -0.9875   -1.3328 C   0  0  0  0  0  0  0  0  0  0  0  0
    0.8715    0.2073   -1.8851 C   0  0  0  0  0  0  0  0  0  0  0  0
    1.7432    0.8865   -2.7322 C   0  0  0  0  0  0  0  0  0  0  0  0
    2.9876    0.4638   -3.0627 N   0  0  0  0  0  0  0  0  0  0  0  0
    3.4168   -0.6850   -2.5162 C   0  0  0  0  0  0  0  0  0  0  0  0
    4.6819   -1.1491   -2.9132 N   0  0  0  0  0  0  0  0  0  0  0  0
   -0.4569    0.7283   -1.6014 C   0  0  0  0  0  0  0  0  0  0  0  0
   -1.1619    1.8216   -2.1630 C   0  0  0  0  0  0  0  0  0  0  0  0
   -2.3663    2.0029   -1.6175 N   0  0  0  0  0  0  0  0  0  0  0  0
   -2.4484    1.0233   -0.6980 N   0  0  0  0  0  0  0  0  0  0  0  0
   -1.3315    0.2344   -0.6532 C   0  0  0  0  0  0  0  0  0  0  0  0
   -3.6380    0.8947    0.1408 C   0  0  0  0  0  0  0  0  0  0  0  0
   -4.8614    0.4924   -0.6964 C   0  0  0  0  0  0  0  0  0  0  0  0
   -6.1512    0.8267    0.0412 C   0  0  0  0  0  0  0  0  0  0  0  0
   -6.2851    2.2413    0.3882 N   0  0  0  0  0  0  0  0  0  0  0  0
   -5.0240    2.9858    0.3987 C   0  0  0  0  0  0  0  0  0  0  0  0
   -3.8850    2.1580    0.9814 C   0  0  0  0  0  0  0  0  0  0  0  0
    2.2343   -4.5875    0.3972 H   0  0  0  0  0  0  0  0  0  0  0  0
    2.2372   -3.7475    1.9530 H   0  0  0  0  0  0  0  0  0  0  0  0
    1.1594   -3.2452    0.6209 H   0  0  0  0  0  0  0  0  0  0  0  0
    4.1408   -3.3559    0.4678 H   0  0  0  0  0  0  0  0  0  0  0  0
    6.4731    0.5883    1.4098 H   0  0  0  0  0  0  0  0  0  0  0  0
    4.9018    1.9172    2.7937 H   0  0  0  0  0  0  0  0  0  0  0  0
    0.6989   -1.5891   -0.7062 H   0  0  0  0  0  0  0  0  0  0  0  0
    1.4684    1.8253   -3.2054 H   0  0  0  0  0  0  0  0  0  0  0  0
    4.5537   -2.0581   -3.3489 H   0  0  0  0  0  0  0  0  0  0  0  0
    5.2428   -1.3135   -2.0809 H   0  0  0  0  0  0  0  0  0  0  0  0
   -0.8502    2.4995   -2.9474 H   0  0  0  0  0  0  0  0  0  0  0  0
   -1.2625   -0.5844    0.0492 H   0  0  0  0  0  0  0  0  0  0  0  0
   -3.4156    0.0781    0.8415 H   0  0  0  0  0  0  0  0  0  0  0  0
   -4.8656    1.0008   -1.6695 H   0  0  0  0  0  0  0  0  0  0  0  0
   -4.8205   -0.5813   -0.9178 H   0  0  0  0  0  0  0  0  0  0  0  0
   -7.0125    0.5224   -0.5637 H   0  0  0  0  0  0  0  0  0  0  0  0
   -6.2021    0.2387    0.9658 H   0  0  0  0  0  0  0  0  0  0  0  0
   -6.9304    2.7008   -0.2553 H   0  0  0  0  0  0  0  0  0  0  0  0
   -4.7768    3.3127   -0.6178 H   0  0  0  0  0  0  0  0  0  0  0  0
   -5.1617    3.8923    0.9966 H   0  0  0  0  0  0  0  0  0  0  0  0
   -4.1553    1.8594    2.0032 H   0  0  0  0  0  0  0  0  0  0  0  0
   -2.9797    2.7703    1.0718 H   0  0  0  0  0  0  0  0  0  0  0  0
  1  2  1  0
  2  3  1  0
  3  4  2  0
  4  5  1  0
  5  6  2  0
  6  7  1  0
  7  8  2  0
  8  9  1  0
  7 10  1  0
  4 11  1  0
  2 12  1  0
 12 13  1  0
 13 14  2  0
 14 15  1  0
 15 16  2  0
 16 17  1  0
 17 18  2  0
 18 19  1  0
 15 20  1  0
 20 21  1  0
 21 22  2  0
 22 23  1  0
 23 24  1  0
 23 25  1  0
 25 26  1  0
 26 27  1  0
 27 28  1  0
 28 29  1  0
 29 30  1  0
  8  3  1  0
 18 13  1  0
 24 20  2  0
 30 25  1  0
  1 31  1  0
  1 32  1  0
  1 33  1  0
  2 34  1  6
  5 35  1  0
  6 36  1  0
 14 37  1  0
 16 38  1  0
 19 39  1  0
 19 40  1  0
 21 41  1  0
 24 42  1  0
 25 43  1  0
 26 44  1  0
 26 45  1  0
 27 46  1  0
 27 47  1  0
 28 48  1  0
 29 49  1  0
 29 50  1  0
 30 51  1  0
 30 52  1  0
M  END
>  <energy_abs>  (212) 
45.072095357501134

>  <SMILES>  (212) 
C[C@H](c1c(ccc(c1Cl)F)Cl)Oc2cc(cnc2N)c3cnn(c3)C4CCNCC4

>  <cluster_no>  (212) 
212

>  <fda_drugs_id>  (212) 
KTEIFNKAUNYNJU-GFCCVEGCSA-N

>  <initial_conformation_id>  (212) 
69

>  <minimize_method>  (212) 
MMFF

$$$$

     RDKit          3D

 52 55  0  0  0  0  0  0  0  0999 V2000
    2.9828   -0.3994    3.2207 C   0  0  0  0  0  0  0  0  0  0  0  0
    3.1251   -0.5912    1.7086 C   0  0  2  0  0  0  0  0  0  0  0  0
    4.4428   -1.2739    1.3607 C   0  0  0  0  0  0  0  0  0  0  0  0
    4.4645   -2.6437    1.0080 C   0  0  0  0  0  0  0  0  0  0  0  0
    5.6586   -3.2955    0.6653 C   0  0  0  0  0  0  0  0  0  0  0  0
    6.8619   -2.6022    0.6725 C   0  0  0  0  0  0  0  0  0  0  0  0
    6.8672   -1.2625    1.0306 C   0  0  0  0  0  0  0  0  0  0  0  0
    5.6833   -0.5958    1.3777 C   0  0  0  0  0  0  0  0  0  0  0  0
    5.8397    1.0722    1.8231 Cl  0  0  0  0  0  0  0  0  0  0  0  0
    8.0437   -0.6163    1.0419 F   0  0  0  0  0  0  0  0  0  0  0  0
    3.0386   -3.6285    0.9953 Cl  0  0  0  0  0  0  0  0  0  0  0  0
    2.9957    0.7003    1.0787 O   0  0  0  0  0  0  0  0  0  0  0  0
    2.2079    0.6380   -0.0415 C   0  0  0  0  0  0  0  0  0  0  0  0
    0.8301    0.8043    0.0904 C   0  0  0  0  0  0  0  0  0  0  0  0
    0.0237    0.7610   -1.0467 C   0  0  0  0  0  0  0  0  0  0  0  0
    0.6673    0.5710   -2.2683 C   0  0  0  0  0  0  0  0  0  0  0  0
    2.0098    0.4346   -2.4254 N   0  0  0  0  0  0  0  0  0  0  0  0
    2.7634    0.4876   -1.3142 C   0  0  0  0  0  0  0  0  0  0  0  0
    4.1384    0.3409   -1.4988 N   0  0  0  0  0  0  0  0  0  0  0  0
   -1.4133    0.9204   -0.9489 C   0  0  0  0  0  0  0  0  0  0  0  0
   -2.2021    1.6151   -0.0045 C   0  0  0  0  0  0  0  0  0  0  0  0
   -3.5095    1.5153   -0.2507 N   0  0  0  0  0  0  0  0  0  0  0  0
   -3.5741    0.7527   -1.3551 N   0  0  0  0  0  0  0  0  0  0  0  0
   -2.3391    0.3706   -1.8113 C   0  0  0  0  0  0  0  0  0  0  0  0
   -4.8576    0.4115   -1.9652 C   0  0  0  0  0  0  0  0  0  0  0  0
   -5.4559    1.5883   -2.7463 C   0  0  0  0  0  0  0  0  0  0  0  0
   -6.2363    2.5487   -1.8535 C   0  0  0  0  0  0  0  0  0  0  0  0
   -7.2617    1.8454   -1.0833 N   0  0  0  0  0  0  0  0  0  0  0  0
   -6.6462    0.8589   -0.1951 C   0  0  0  0  0  0  0  0  0  0  0  0
   -5.8638   -0.1952   -0.9761 C   0  0  0  0  0  0  0  0  0  0  0  0
    3.0530   -1.3536    3.7528 H   0  0  0  0  0  0  0  0  0  0  0  0
    2.0129    0.0567    3.4525 H   0  0  0  0  0  0  0  0  0  0  0  0
    3.7430    0.2746    3.6268 H   0  0  0  0  0  0  0  0  0  0  0  0
    2.2757   -1.2130    1.4065 H   0  0  0  0  0  0  0  0  0  0  0  0
    5.6523   -4.3482    0.3917 H   0  0  0  0  0  0  0  0  0  0  0  0
    7.7924   -3.0942    0.4074 H   0  0  0  0  0  0  0  0  0  0  0  0
    0.4057    0.9523    1.0780 H   0  0  0  0  0  0  0  0  0  0  0  0
    0.1118    0.5369   -3.2019 H   0  0  0  0  0  0  0  0  0  0  0  0
    4.6390    1.0759   -1.0078 H   0  0  0  0  0  0  0  0  0  0  0  0
    4.3107    0.3495   -2.4998 H   0  0  0  0  0  0  0  0  0  0  0  0
   -1.8791    2.1953    0.8505 H   0  0  0  0  0  0  0  0  0  0  0  0
   -2.2355   -0.2547   -2.6872 H   0  0  0  0  0  0  0  0  0  0  0  0
   -4.6118   -0.3743   -2.6930 H   0  0  0  0  0  0  0  0  0  0  0  0
   -4.6752    2.1380   -3.2860 H   0  0  0  0  0  0  0  0  0  0  0  0
   -6.1398    1.1885   -3.5077 H   0  0  0  0  0  0  0  0  0  0  0  0
   -5.5674    3.1000   -1.1834 H   0  0  0  0  0  0  0  0  0  0  0  0
   -6.7271    3.3011   -2.4807 H   0  0  0  0  0  0  0  0  0  0  0  0
   -7.9163    1.3843   -1.7140 H   0  0  0  0  0  0  0  0  0  0  0  0
   -7.4397    0.3629    0.3755 H   0  0  0  0  0  0  0  0  0  0  0  0
   -6.0141    1.3610    0.5450 H   0  0  0  0  0  0  0  0  0  0  0  0
   -5.3631   -0.8777   -0.2785 H   0  0  0  0  0  0  0  0  0  0  0  0
   -6.5815   -0.8016   -1.5454 H   0  0  0  0  0  0  0  0  0  0  0  0
  1  2  1  0
  2  3  1  0
  3  4  2  0
  4  5  1  0
  5  6  2  0
  6  7  1  0
  7  8  2  0
  8  9  1  0
  7 10  1  0
  4 11  1  0
  2 12  1  0
 12 13  1  0
 13 14  2  0
 14 15  1  0
 15 16  2  0
 16 17  1  0
 17 18  2  0
 18 19  1  0
 15 20  1  0
 20 21  1  0
 21 22  2  0
 22 23  1  0
 23 24  1  0
 23 25  1  0
 25 26  1  0
 26 27  1  0
 27 28  1  0
 28 29  1  0
 29 30  1  0
  8  3  1  0
 18 13  1  0
 24 20  2  0
 30 25  1  0
  1 31  1  0
  1 32  1  0
  1 33  1  0
  2 34  1  6
  5 35  1  0
  6 36  1  0
 14 37  1  0
 16 38  1  0
 19 39  1  0
 19 40  1  0
 21 41  1  0
 24 42  1  0
 25 43  1  0
 26 44  1  0
 26 45  1  0
 27 46  1  0
 27 47  1  0
 28 48  1  0
 29 49  1  0
 29 50  1  0
 30 51  1  0
 30 52  1  0
M  END
>  <energy_abs>  (213) 
23.73700803274952

>  <SMILES>  (213) 
C[C@H](c1c(ccc(c1Cl)F)Cl)Oc2cc(cnc2N)c3cnn(c3)C4CCNCC4

>  <cluster_no>  (213) 
213

>  <fda_drugs_id>  (213) 
KTEIFNKAUNYNJU-GFCCVEGCSA-N

>  <initial_conformation_id>  (213) 
68

>  <minimize_method>  (213) 
MMFF

$$$$

     RDKit          3D

 52 55  0  0  0  0  0  0  0  0999 V2000
    2.1467   -0.6849    2.9792 C   0  0  0  0  0  0  0  0  0  0  0  0
    2.6024   -0.7116    1.5181 C   0  0  2  0  0  0  0  0  0  0  0  0
    4.0251   -1.2442    1.3891 C   0  0  0  0  0  0  0  0  0  0  0  0
    4.2550   -2.5568    0.9145 C   0  0  0  0  0  0  0  0  0  0  0  0
    5.5525   -3.0683    0.7681 C   0  0  0  0  0  0  0  0  0  0  0  0
    6.6540   -2.2893    1.0971 C   0  0  0  0  0  0  0  0  0  0  0  0
    6.4524   -1.0046    1.5789 C   0  0  0  0  0  0  0  0  0  0  0  0
    5.1623   -0.4778    1.7329 C   0  0  0  0  0  0  0  0  0  0  0  0
    5.0573    1.1346    2.3620 Cl  0  0  0  0  0  0  0  0  0  0  0  0
    7.5317   -0.2753    1.9017 F   0  0  0  0  0  0  0  0  0  0  0  0
    2.9680   -3.6416    0.5032 Cl  0  0  0  0  0  0  0  0  0  0  0  0
    2.4684    0.6205    0.9814 O   0  0  0  0  0  0  0  0  0  0  0  0
    1.9854    0.6026   -0.3021 C   0  0  0  0  0  0  0  0  0  0  0  0
    0.6085    0.5341   -0.5126 C   0  0  0  0  0  0  0  0  0  0  0  0
    0.1130    0.5404   -1.8170 C   0  0  0  0  0  0  0  0  0  0  0  0
    1.0508    0.6336   -2.8445 C   0  0  0  0  0  0  0  0  0  0  0  0
    2.3937    0.7287   -2.6644 N   0  0  0  0  0  0  0  0  0  0  0  0
    2.8422    0.7297   -1.3977 C   0  0  0  0  0  0  0  0  0  0  0  0
    4.2252    0.8120   -1.2374 N   0  0  0  0  0  0  0  0  0  0  0  0
   -1.3059    0.4462   -2.1040 C   0  0  0  0  0  0  0  0  0  0  0  0
   -1.9890   -0.0082   -3.2556 C   0  0  0  0  0  0  0  0  0  0  0  0
   -3.3159    0.0739   -3.1371 N   0  0  0  0  0  0  0  0  0  0  0  0
   -3.4977    0.5783   -1.9017 N   0  0  0  0  0  0  0  0  0  0  0  0
   -2.3207    0.8249   -1.2487 C   0  0  0  0  0  0  0  0  0  0  0  0
   -4.8557    0.8266   -1.4259 C   0  0  0  0  0  0  0  0  0  0  0  0
   -5.1678    0.0479   -0.1401 C   0  0  0  0  0  0  0  0  0  0  0  0
   -6.2726    0.7406    0.6443 C   0  0  0  0  0  0  0  0  0  0  0  0
   -5.8723    2.0755    1.0821 N   0  0  0  0  0  0  0  0  0  0  0  0
   -5.0473    2.8176    0.1315 C   0  0  0  0  0  0  0  0  0  0  0  0
   -5.1649    2.3273   -1.3065 C   0  0  0  0  0  0  0  0  0  0  0  0
    1.1040   -0.3528    3.0404 H   0  0  0  0  0  0  0  0  0  0  0  0
    2.2221   -1.6756    3.4395 H   0  0  0  0  0  0  0  0  0  0  0  0
    2.7268    0.0185    3.5837 H   0  0  0  0  0  0  0  0  0  0  0  0
    1.8940   -1.3684    1.0020 H   0  0  0  0  0  0  0  0  0  0  0  0
    5.7071   -4.0789    0.3955 H   0  0  0  0  0  0  0  0  0  0  0  0
    7.6633   -2.6726    0.9859 H   0  0  0  0  0  0  0  0  0  0  0  0
   -0.0554    0.4635    0.3428 H   0  0  0  0  0  0  0  0  0  0  0  0
    0.7489    0.6494   -3.8887 H   0  0  0  0  0  0  0  0  0  0  0  0
    4.4597    1.5194   -0.5471 H   0  0  0  0  0  0  0  0  0  0  0  0
    4.6265    1.0013   -2.1511 H   0  0  0  0  0  0  0  0  0  0  0  0
   -1.5775   -0.4007   -4.1768 H   0  0  0  0  0  0  0  0  0  0  0  0
   -2.3088    1.2444   -0.2529 H   0  0  0  0  0  0  0  0  0  0  0  0
   -5.5128    0.4344   -2.2157 H   0  0  0  0  0  0  0  0  0  0  0  0
   -5.4723   -0.9746   -0.3960 H   0  0  0  0  0  0  0  0  0  0  0  0
   -4.2823   -0.0530    0.5002 H   0  0  0  0  0  0  0  0  0  0  0  0
   -7.1797    0.8068    0.0310 H   0  0  0  0  0  0  0  0  0  0  0  0
   -6.5292    0.1446    1.5264 H   0  0  0  0  0  0  0  0  0  0  0  0
   -6.7014    2.6156    1.3320 H   0  0  0  0  0  0  0  0  0  0  0  0
   -4.0044    2.7559    0.4608 H   0  0  0  0  0  0  0  0  0  0  0  0
   -5.3164    3.8791    0.1790 H   0  0  0  0  0  0  0  0  0  0  0  0
   -6.1939    2.5039   -1.6479 H   0  0  0  0  0  0  0  0  0  0  0  0
   -4.5193    2.9242   -1.9619 H   0  0  0  0  0  0  0  0  0  0  0  0
  1  2  1  0
  2  3  1  0
  3  4  2  0
  4  5  1  0
  5  6  2  0
  6  7  1  0
  7  8  2  0
  8  9  1  0
  7 10  1  0
  4 11  1  0
  2 12  1  0
 12 13  1  0
 13 14  2  0
 14 15  1  0
 15 16  2  0
 16 17  1  0
 17 18  2  0
 18 19  1  0
 15 20  1  0
 20 21  1  0
 21 22  2  0
 22 23  1  0
 23 24  1  0
 23 25  1  0
 25 26  1  0
 26 27  1  0
 27 28  1  0
 28 29  1  0
 29 30  1  0
  8  3  1  0
 18 13  1  0
 24 20  2  0
 30 25  1  0
  1 31  1  0
  1 32  1  0
  1 33  1  0
  2 34  1  6
  5 35  1  0
  6 36  1  0
 14 37  1  0
 16 38  1  0
 19 39  1  0
 19 40  1  0
 21 41  1  0
 24 42  1  0
 25 43  1  0
 26 44  1  0
 26 45  1  0
 27 46  1  0
 27 47  1  0
 28 48  1  0
 29 49  1  0
 29 50  1  0
 30 51  1  0
 30 52  1  0
M  END
>  <energy_abs>  (214) 
28.221672998100527

>  <SMILES>  (214) 
C[C@H](c1c(ccc(c1Cl)F)Cl)Oc2cc(cnc2N)c3cnn(c3)C4CCNCC4

>  <cluster_no>  (214) 
214

>  <fda_drugs_id>  (214) 
KTEIFNKAUNYNJU-GFCCVEGCSA-N

>  <initial_conformation_id>  (214) 
67

>  <minimize_method>  (214) 
MMFF

$$$$

     RDKit          3D

 52 55  0  0  0  0  0  0  0  0999 V2000
    3.0362    0.9202    1.9370 C   0  0  0  0  0  0  0  0  0  0  0  0
    3.1000   -0.3271    1.0463 C   0  0  2  0  0  0  0  0  0  0  0  0
    4.1927   -1.2858    1.5181 C   0  0  0  0  0  0  0  0  0  0  0  0
    3.8533   -2.4982    2.1675 C   0  0  0  0  0  0  0  0  0  0  0  0
    4.8357   -3.4058    2.5873 C   0  0  0  0  0  0  0  0  0  0  0  0
    6.1813   -3.1245    2.3879 C   0  0  0  0  0  0  0  0  0  0  0  0
    6.5396   -1.9312    1.7776 C   0  0  0  0  0  0  0  0  0  0  0  0
    5.5713   -1.0170    1.3408 C   0  0  0  0  0  0  0  0  0  0  0  0
    6.1586    0.4323    0.5915 Cl  0  0  0  0  0  0  0  0  0  0  0  0
    7.8463   -1.6770    1.6049 F   0  0  0  0  0  0  0  0  0  0  0  0
    2.2158   -2.9529    2.5095 Cl  0  0  0  0  0  0  0  0  0  0  0  0
    3.3559    0.0040   -0.3263 O   0  0  0  0  0  0  0  0  0  0  0  0
    2.3802    0.5939   -1.0834 C   0  0  0  0  0  0  0  0  0  0  0  0
    1.0173    0.6270   -0.7863 C   0  0  0  0  0  0  0  0  0  0  0  0
    0.1263    1.2525   -1.6655 C   0  0  0  0  0  0  0  0  0  0  0  0
    0.6634    1.8230   -2.8148 C   0  0  0  0  0  0  0  0  0  0  0  0
    1.9767    1.8045   -3.1351 N   0  0  0  0  0  0  0  0  0  0  0  0
    2.8149    1.1961   -2.2781 C   0  0  0  0  0  0  0  0  0  0  0  0
    4.1748    1.1467   -2.6371 N   0  0  0  0  0  0  0  0  0  0  0  0
   -1.3021    1.3080   -1.4030 C   0  0  0  0  0  0  0  0  0  0  0  0
   -2.2823    2.2392   -1.8177 C   0  0  0  0  0  0  0  0  0  0  0  0
   -3.5102    1.9218   -1.3996 N   0  0  0  0  0  0  0  0  0  0  0  0
   -3.3283    0.7740   -0.7149 N   0  0  0  0  0  0  0  0  0  0  0  0
   -2.0200    0.3675   -0.6917 C   0  0  0  0  0  0  0  0  0  0  0  0
   -4.4590    0.0740   -0.1022 C   0  0  0  0  0  0  0  0  0  0  0  0
   -5.2024   -0.7878   -1.1267 C   0  0  0  0  0  0  0  0  0  0  0  0
   -6.0114    0.0544   -2.1167 C   0  0  0  0  0  0  0  0  0  0  0  0
   -6.4901    1.3297   -1.5769 N   0  0  0  0  0  0  0  0  0  0  0  0
   -6.7238    1.2529   -0.1395 C   0  0  0  0  0  0  0  0  0  0  0  0
   -5.4256    1.0181    0.6358 C   0  0  0  0  0  0  0  0  0  0  0  0
    3.0413    0.6596    3.0004 H   0  0  0  0  0  0  0  0  0  0  0  0
    2.1219    1.4868    1.7344 H   0  0  0  0  0  0  0  0  0  0  0  0
    3.8644    1.6095    1.7432 H   0  0  0  0  0  0  0  0  0  0  0  0
    2.1405   -0.8422    1.0949 H   0  0  0  0  0  0  0  0  0  0  0  0
    4.5531   -4.3408    3.0713 H   0  0  0  0  0  0  0  0  0  0  0  0
    6.9523   -3.8216    2.7001 H   0  0  0  0  0  0  0  0  0  0  0  0
    0.6271    0.1754    0.1176 H   0  0  0  0  0  0  0  0  0  0  0  0
    0.0393    2.3194   -3.5542 H   0  0  0  0  0  0  0  0  0  0  0  0
    4.7181    1.4992   -1.8533 H   0  0  0  0  0  0  0  0  0  0  0  0
    4.4327    0.1682   -2.7257 H   0  0  0  0  0  0  0  0  0  0  0  0
   -2.1549    3.1398   -2.4053 H   0  0  0  0  0  0  0  0  0  0  0  0
   -1.7298   -0.5485   -0.1988 H   0  0  0  0  0  0  0  0  0  0  0  0
   -4.0047   -0.5891    0.6459 H   0  0  0  0  0  0  0  0  0  0  0  0
   -5.8882   -1.4544   -0.5865 H   0  0  0  0  0  0  0  0  0  0  0  0
   -4.5070   -1.4334   -1.6757 H   0  0  0  0  0  0  0  0  0  0  0  0
   -6.8681   -0.5327   -2.4669 H   0  0  0  0  0  0  0  0  0  0  0  0
   -5.4051    0.2606   -3.0059 H   0  0  0  0  0  0  0  0  0  0  0  0
   -5.7409    2.0213   -1.7320 H   0  0  0  0  0  0  0  0  0  0  0  0
   -7.4505    0.4601    0.0790 H   0  0  0  0  0  0  0  0  0  0  0  0
   -7.1820    2.1870    0.2033 H   0  0  0  0  0  0  0  0  0  0  0  0
   -4.9444    1.9761    0.8648 H   0  0  0  0  0  0  0  0  0  0  0  0
   -5.6909    0.5710    1.6031 H   0  0  0  0  0  0  0  0  0  0  0  0
  1  2  1  0
  2  3  1  0
  3  4  2  0
  4  5  1  0
  5  6  2  0
  6  7  1  0
  7  8  2  0
  8  9  1  0
  7 10  1  0
  4 11  1  0
  2 12  1  0
 12 13  1  0
 13 14  2  0
 14 15  1  0
 15 16  2  0
 16 17  1  0
 17 18  2  0
 18 19  1  0
 15 20  1  0
 20 21  1  0
 21 22  2  0
 22 23  1  0
 23 24  1  0
 23 25  1  0
 25 26  1  0
 26 27  1  0
 27 28  1  0
 28 29  1  0
 29 30  1  0
  8  3  1  0
 18 13  1  0
 24 20  2  0
 30 25  1  0
  1 31  1  0
  1 32  1  0
  1 33  1  0
  2 34  1  6
  5 35  1  0
  6 36  1  0
 14 37  1  0
 16 38  1  0
 19 39  1  0
 19 40  1  0
 21 41  1  0
 24 42  1  0
 25 43  1  0
 26 44  1  0
 26 45  1  0
 27 46  1  0
 27 47  1  0
 28 48  1  0
 29 49  1  0
 29 50  1  0
 30 51  1  0
 30 52  1  0
M  END
>  <energy_abs>  (215) 
39.564157402241094

>  <SMILES>  (215) 
C[C@H](c1c(ccc(c1Cl)F)Cl)Oc2cc(cnc2N)c3cnn(c3)C4CCNCC4

>  <cluster_no>  (215) 
215

>  <fda_drugs_id>  (215) 
KTEIFNKAUNYNJU-GFCCVEGCSA-N

>  <initial_conformation_id>  (215) 
66

>  <minimize_method>  (215) 
MMFF

$$$$

     RDKit          3D

 52 55  0  0  0  0  0  0  0  0999 V2000
    6.2517    0.3657    0.1515 C   0  0  0  0  0  0  0  0  0  0  0  0
    4.7226    0.4415    0.2122 C   0  0  2  0  0  0  0  0  0  0  0  0
    4.1423   -0.6947    1.0481 C   0  0  0  0  0  0  0  0  0  0  0  0
    3.6560   -0.4427    2.3529 C   0  0  0  0  0  0  0  0  0  0  0  0
    3.1125   -1.4657    3.1443 C   0  0  0  0  0  0  0  0  0  0  0  0
    3.0497   -2.7673    2.6624 C   0  0  0  0  0  0  0  0  0  0  0  0
    3.5309   -3.0399    1.3901 C   0  0  0  0  0  0  0  0  0  0  0  0
    4.0739   -2.0298    0.5837 C   0  0  0  0  0  0  0  0  0  0  0  0
    4.6409   -2.5107   -0.9823 Cl  0  0  0  0  0  0  0  0  0  0  0  0
    3.4599   -4.3037    0.9449 F   0  0  0  0  0  0  0  0  0  0  0  0
    3.6962    1.1299    3.0782 Cl  0  0  0  0  0  0  0  0  0  0  0  0
    4.2241    0.4499   -1.1425 O   0  0  0  0  0  0  0  0  0  0  0  0
    3.0914    1.2163   -1.2581 C   0  0  0  0  0  0  0  0  0  0  0  0
    1.8426    0.6242   -1.0703 C   0  0  0  0  0  0  0  0  0  0  0  0
    0.6872    1.3969   -1.1951 C   0  0  0  0  0  0  0  0  0  0  0  0
    0.8708    2.7395   -1.5211 C   0  0  0  0  0  0  0  0  0  0  0  0
    2.0742    3.3294   -1.7446 N   0  0  0  0  0  0  0  0  0  0  0  0
    3.1699    2.5623   -1.6349 C   0  0  0  0  0  0  0  0  0  0  0  0
    4.4098    3.1642   -1.8997 N   0  0  0  0  0  0  0  0  0  0  0  0
   -0.6288    0.8126   -0.9936 C   0  0  0  0  0  0  0  0  0  0  0  0
   -1.0104   -0.4422   -0.4608 C   0  0  0  0  0  0  0  0  0  0  0  0
   -2.3315   -0.6287   -0.4593 N   0  0  0  0  0  0  0  0  0  0  0  0
   -2.8144    0.5059   -0.9955 N   0  0  0  0  0  0  0  0  0  0  0  0
   -1.8326    1.4014   -1.3276 C   0  0  0  0  0  0  0  0  0  0  0  0
   -4.2506    0.6775   -1.1996 C   0  0  0  0  0  0  0  0  0  0  0  0
   -4.8631   -0.4647   -2.0284 C   0  0  0  0  0  0  0  0  0  0  0  0
   -5.5826   -1.4675   -1.1329 C   0  0  0  0  0  0  0  0  0  0  0  0
   -6.6711   -0.8623   -0.3628 N   0  0  0  0  0  0  0  0  0  0  0  0
   -6.4560    0.5399   -0.0048 C   0  0  0  0  0  0  0  0  0  0  0  0
   -4.9805    0.8955    0.1344 C   0  0  0  0  0  0  0  0  0  0  0  0
    6.6033   -0.5399   -0.3513 H   0  0  0  0  0  0  0  0  0  0  0  0
    6.6462    1.2092   -0.4274 H   0  0  0  0  0  0  0  0  0  0  0  0
    6.6925    0.3955    1.1540 H   0  0  0  0  0  0  0  0  0  0  0  0
    4.4959    1.4149    0.6606 H   0  0  0  0  0  0  0  0  0  0  0  0
    2.7389   -1.2500    4.1445 H   0  0  0  0  0  0  0  0  0  0  0  0
    2.6335   -3.5684    3.2688 H   0  0  0  0  0  0  0  0  0  0  0  0
    1.7879   -0.4357   -0.8464 H   0  0  0  0  0  0  0  0  0  0  0  0
    0.0327    3.4229   -1.6208 H   0  0  0  0  0  0  0  0  0  0  0  0
    4.8852    2.6009   -2.6016 H   0  0  0  0  0  0  0  0  0  0  0  0
    4.9805    3.1375   -1.0628 H   0  0  0  0  0  0  0  0  0  0  0  0
   -0.3813   -1.2324   -0.0714 H   0  0  0  0  0  0  0  0  0  0  0  0
   -2.0797    2.3537   -1.7757 H   0  0  0  0  0  0  0  0  0  0  0  0
   -4.3496    1.5936   -1.7981 H   0  0  0  0  0  0  0  0  0  0  0  0
   -4.1061   -0.9750   -2.6371 H   0  0  0  0  0  0  0  0  0  0  0  0
   -5.5900   -0.0436   -2.7368 H   0  0  0  0  0  0  0  0  0  0  0  0
   -4.8747   -1.9330   -0.4372 H   0  0  0  0  0  0  0  0  0  0  0  0
   -5.9928   -2.2806   -1.7426 H   0  0  0  0  0  0  0  0  0  0  0  0
   -7.5587   -0.9637   -0.8559 H   0  0  0  0  0  0  0  0  0  0  0  0
   -6.9785    0.7460    0.9357 H   0  0  0  0  0  0  0  0  0  0  0  0
   -6.9132    1.1836   -0.7686 H   0  0  0  0  0  0  0  0  0  0  0  0
   -4.5359    0.2926    0.9380 H   0  0  0  0  0  0  0  0  0  0  0  0
   -4.8739    1.9423    0.4462 H   0  0  0  0  0  0  0  0  0  0  0  0
  1  2  1  0
  2  3  1  0
  3  4  2  0
  4  5  1  0
  5  6  2  0
  6  7  1  0
  7  8  2  0
  8  9  1  0
  7 10  1  0
  4 11  1  0
  2 12  1  0
 12 13  1  0
 13 14  2  0
 14 15  1  0
 15 16  2  0
 16 17  1  0
 17 18  2  0
 18 19  1  0
 15 20  1  0
 20 21  1  0
 21 22  2  0
 22 23  1  0
 23 24  1  0
 23 25  1  0
 25 26  1  0
 26 27  1  0
 27 28  1  0
 28 29  1  0
 29 30  1  0
  8  3  1  0
 18 13  1  0
 24 20  2  0
 30 25  1  0
  1 31  1  0
  1 32  1  0
  1 33  1  0
  2 34  1  1
  5 35  1  0
  6 36  1  0
 14 37  1  0
 16 38  1  0
 19 39  1  0
 19 40  1  0
 21 41  1  0
 24 42  1  0
 25 43  1  0
 26 44  1  0
 26 45  1  0
 27 46  1  0
 27 47  1  0
 28 48  1  0
 29 49  1  0
 29 50  1  0
 30 51  1  0
 30 52  1  0
M  END
>  <energy_abs>  (216) 
39.96876005034249

>  <SMILES>  (216) 
C[C@H](c1c(ccc(c1Cl)F)Cl)Oc2cc(cnc2N)c3cnn(c3)C4CCNCC4

>  <cluster_no>  (216) 
216

>  <fda_drugs_id>  (216) 
KTEIFNKAUNYNJU-GFCCVEGCSA-N

>  <initial_conformation_id>  (216) 
65

>  <minimize_method>  (216) 
MMFF

$$$$

     RDKit          3D

 52 55  0  0  0  0  0  0  0  0999 V2000
    3.2838    0.9095    2.4461 C   0  0  0  0  0  0  0  0  0  0  0  0
    3.3632   -0.1146    1.3117 C   0  0  2  0  0  0  0  0  0  0  0  0
    4.6882   -0.8729    1.3410 C   0  0  0  0  0  0  0  0  0  0  0  0
    4.7427   -2.1977    1.8369 C   0  0  0  0  0  0  0  0  0  0  0  0
    5.9446   -2.9200    1.8750 C   0  0  0  0  0  0  0  0  0  0  0  0
    7.1258   -2.3386    1.4320 C   0  0  0  0  0  0  0  0  0  0  0  0
    7.1009   -1.0354    0.9580 C   0  0  0  0  0  0  0  0  0  0  0  0
    5.9082   -0.2990    0.9109 C   0  0  0  0  0  0  0  0  0  0  0  0
    6.0300    1.3241    0.3171 Cl  0  0  0  0  0  0  0  0  0  0  0  0
    8.2566   -0.4921    0.5461 F   0  0  0  0  0  0  0  0  0  0  0  0
    3.3480   -3.0257    2.4461 Cl  0  0  0  0  0  0  0  0  0  0  0  0
    3.2007    0.5568    0.0463 O   0  0  0  0  0  0  0  0  0  0  0  0
    2.0511    0.1797   -0.5974 C   0  0  0  0  0  0  0  0  0  0  0  0
    0.8516    0.8200   -0.2908 C   0  0  0  0  0  0  0  0  0  0  0  0
   -0.3119    0.4489   -0.9643 C   0  0  0  0  0  0  0  0  0  0  0  0
   -0.1911   -0.5477   -1.9300 C   0  0  0  0  0  0  0  0  0  0  0  0
    0.9714   -1.1669   -2.2611 N   0  0  0  0  0  0  0  0  0  0  0  0
    2.0830   -0.7873   -1.6098 C   0  0  0  0  0  0  0  0  0  0  0  0
    3.2934   -1.3924   -1.9848 N   0  0  0  0  0  0  0  0  0  0  0  0
   -1.5769    1.0940   -0.6753 C   0  0  0  0  0  0  0  0  0  0  0  0
   -1.8623    2.4048   -0.2390 C   0  0  0  0  0  0  0  0  0  0  0  0
   -3.1665    2.6130   -0.0543 N   0  0  0  0  0  0  0  0  0  0  0  0
   -3.7399    1.4385   -0.3983 N   0  0  0  0  0  0  0  0  0  0  0  0
   -2.8156    0.4892   -0.7442 C   0  0  0  0  0  0  0  0  0  0  0  0
   -5.1933    1.3172   -0.2712 C   0  0  0  0  0  0  0  0  0  0  0  0
   -5.7771   -0.0704   -0.5897 C   0  0  0  0  0  0  0  0  0  0  0  0
   -5.8617   -0.3373   -2.0926 C   0  0  0  0  0  0  0  0  0  0  0  0
   -6.5759    0.7224   -2.8004 N   0  0  0  0  0  0  0  0  0  0  0  0
   -5.9529    2.0281   -2.5791 C   0  0  0  0  0  0  0  0  0  0  0  0
   -5.9329    2.3845   -1.0964 C   0  0  0  0  0  0  0  0  0  0  0  0
    4.0132    1.7172    2.3286 H   0  0  0  0  0  0  0  0  0  0  0  0
    3.4460    0.4374    3.4212 H   0  0  0  0  0  0  0  0  0  0  0  0
    2.2987    1.3883    2.4579 H   0  0  0  0  0  0  0  0  0  0  0  0
    2.5297   -0.8114    1.4551 H   0  0  0  0  0  0  0  0  0  0  0  0
    5.9630   -3.9394    2.2565 H   0  0  0  0  0  0  0  0  0  0  0  0
    8.0642   -2.8848    1.4585 H   0  0  0  0  0  0  0  0  0  0  0  0
    0.8371    1.5975    0.4662 H   0  0  0  0  0  0  0  0  0  0  0  0
   -1.0470   -0.8838   -2.5095 H   0  0  0  0  0  0  0  0  0  0  0  0
    3.9400   -0.6499   -2.2454 H   0  0  0  0  0  0  0  0  0  0  0  0
    3.6917   -1.8602   -1.1794 H   0  0  0  0  0  0  0  0  0  0  0  0
   -1.1752    3.2188   -0.0471 H   0  0  0  0  0  0  0  0  0  0  0  0
   -3.0981   -0.5223   -0.9978 H   0  0  0  0  0  0  0  0  0  0  0  0
   -5.3792    1.5159    0.7937 H   0  0  0  0  0  0  0  0  0  0  0  0
   -5.2081   -0.8667   -0.0962 H   0  0  0  0  0  0  0  0  0  0  0  0
   -6.7924   -0.1208   -0.1726 H   0  0  0  0  0  0  0  0  0  0  0  0
   -6.3854   -1.2858   -2.2596 H   0  0  0  0  0  0  0  0  0  0  0  0
   -4.8652   -0.4597   -2.5312 H   0  0  0  0  0  0  0  0  0  0  0  0
   -7.5480    0.7515   -2.4896 H   0  0  0  0  0  0  0  0  0  0  0  0
   -4.9399    2.0392   -2.9995 H   0  0  0  0  0  0  0  0  0  0  0  0
   -6.5251    2.7855   -3.1269 H   0  0  0  0  0  0  0  0  0  0  0  0
   -5.4890    3.3777   -0.9651 H   0  0  0  0  0  0  0  0  0  0  0  0
   -6.9664    2.4605   -0.7322 H   0  0  0  0  0  0  0  0  0  0  0  0
  1  2  1  0
  2  3  1  0
  3  4  2  0
  4  5  1  0
  5  6  2  0
  6  7  1  0
  7  8  2  0
  8  9  1  0
  7 10  1  0
  4 11  1  0
  2 12  1  0
 12 13  1  0
 13 14  2  0
 14 15  1  0
 15 16  2  0
 16 17  1  0
 17 18  2  0
 18 19  1  0
 15 20  1  0
 20 21  1  0
 21 22  2  0
 22 23  1  0
 23 24  1  0
 23 25  1  0
 25 26  1  0
 26 27  1  0
 27 28  1  0
 28 29  1  0
 29 30  1  0
  8  3  1  0
 18 13  1  0
 24 20  2  0
 30 25  1  0
  1 31  1  0
  1 32  1  0
  1 33  1  0
  2 34  1  1
  5 35  1  0
  6 36  1  0
 14 37  1  0
 16 38  1  0
 19 39  1  0
 19 40  1  0
 21 41  1  0
 24 42  1  0
 25 43  1  0
 26 44  1  0
 26 45  1  0
 27 46  1  0
 27 47  1  0
 28 48  1  0
 29 49  1  0
 29 50  1  0
 30 51  1  0
 30 52  1  0
M  END
>  <energy_abs>  (217) 
36.892623347540024

>  <SMILES>  (217) 
C[C@H](c1c(ccc(c1Cl)F)Cl)Oc2cc(cnc2N)c3cnn(c3)C4CCNCC4

>  <cluster_no>  (217) 
217

>  <fda_drugs_id>  (217) 
KTEIFNKAUNYNJU-GFCCVEGCSA-N

>  <initial_conformation_id>  (217) 
64

>  <minimize_method>  (217) 
MMFF

$$$$

     RDKit          3D

 52 55  0  0  0  0  0  0  0  0999 V2000
    3.8180    1.4505    1.1540 C   0  0  0  0  0  0  0  0  0  0  0  0
    3.5109   -0.0363    0.9058 C   0  0  2  0  0  0  0  0  0  0  0  0
    4.5842   -0.9294    1.5311 C   0  0  0  0  0  0  0  0  0  0  0  0
    4.3206   -1.6377    2.7324 C   0  0  0  0  0  0  0  0  0  0  0  0
    5.2924   -2.4541    3.3340 C   0  0  0  0  0  0  0  0  0  0  0  0
    6.5521   -2.5850    2.7588 C   0  0  0  0  0  0  0  0  0  0  0  0
    6.8362   -1.8951    1.5861 C   0  0  0  0  0  0  0  0  0  0  0  0
    5.8795   -1.0698    0.9725 C   0  0  0  0  0  0  0  0  0  0  0  0
    6.3851   -0.2467   -0.4712 Cl  0  0  0  0  0  0  0  0  0  0  0  0
    8.0608   -2.0319    1.0531 F   0  0  0  0  0  0  0  0  0  0  0  0
    2.8029   -1.5406    3.5680 Cl  0  0  0  0  0  0  0  0  0  0  0  0
    3.4076   -0.3528   -0.4958 O   0  0  0  0  0  0  0  0  0  0  0  0
    2.3678    0.2175   -1.1870 C   0  0  0  0  0  0  0  0  0  0  0  0
    1.0539    0.2587   -0.7189 C   0  0  0  0  0  0  0  0  0  0  0  0
    0.0517    0.8165   -1.5209 C   0  0  0  0  0  0  0  0  0  0  0  0
    0.4252    1.2872   -2.7792 C   0  0  0  0  0  0  0  0  0  0  0  0
    1.6866    1.2409   -3.2718 N   0  0  0  0  0  0  0  0  0  0  0  0
    2.6339    0.7056   -2.4775 C   0  0  0  0  0  0  0  0  0  0  0  0
    3.9346    0.7470   -2.9766 N   0  0  0  0  0  0  0  0  0  0  0  0
   -1.3138    0.9015   -1.0448 C   0  0  0  0  0  0  0  0  0  0  0  0
   -1.8232    1.1080    0.2590 C   0  0  0  0  0  0  0  0  0  0  0  0
   -3.1563    1.1111    0.2976 N   0  0  0  0  0  0  0  0  0  0  0  0
   -3.5135    0.8915   -0.9857 N   0  0  0  0  0  0  0  0  0  0  0  0
   -2.4412    0.7729   -1.8279 C   0  0  0  0  0  0  0  0  0  0  0  0
   -4.9214    0.7512   -1.3430 C   0  0  0  0  0  0  0  0  0  0  0  0
   -5.5838   -0.4011   -0.5780 C   0  0  0  0  0  0  0  0  0  0  0  0
   -7.0451   -0.5622   -0.9950 C   0  0  0  0  0  0  0  0  0  0  0  0
   -7.7093    0.6945   -1.3440 N   0  0  0  0  0  0  0  0  0  0  0  0
   -7.1185    1.8473   -0.6733 C   0  0  0  0  0  0  0  0  0  0  0  0
   -5.6931    2.0736   -1.1731 C   0  0  0  0  0  0  0  0  0  0  0  0
    2.9857    2.0825    0.8241 H   0  0  0  0  0  0  0  0  0  0  0  0
    4.6996    1.7930    0.5969 H   0  0  0  0  0  0  0  0  0  0  0  0
    3.9829    1.6516    2.2207 H   0  0  0  0  0  0  0  0  0  0  0  0
    2.5509   -0.2669    1.3752 H   0  0  0  0  0  0  0  0  0  0  0  0
    5.0730   -2.9821    4.2623 H   0  0  0  0  0  0  0  0  0  0  0  0
    7.3139   -3.2096    3.2173 H   0  0  0  0  0  0  0  0  0  0  0  0
    0.7923   -0.1667    0.2462 H   0  0  0  0  0  0  0  0  0  0  0  0
   -0.2963    1.7441   -3.4546 H   0  0  0  0  0  0  0  0  0  0  0  0
    3.8968    1.0257   -3.9525 H   0  0  0  0  0  0  0  0  0  0  0  0
    4.4258   -0.1259   -2.8078 H   0  0  0  0  0  0  0  0  0  0  0  0
   -1.2774    1.2634    1.1826 H   0  0  0  0  0  0  0  0  0  0  0  0
   -2.5757    0.5853   -2.8852 H   0  0  0  0  0  0  0  0  0  0  0  0
   -4.9333    0.4904   -2.4127 H   0  0  0  0  0  0  0  0  0  0  0  0
   -5.5311   -0.2146    0.5070 H   0  0  0  0  0  0  0  0  0  0  0  0
   -5.0430   -1.3436   -0.7531 H   0  0  0  0  0  0  0  0  0  0  0  0
   -7.5901   -1.0614   -0.1873 H   0  0  0  0  0  0  0  0  0  0  0  0
   -7.1072   -1.2200   -1.8685 H   0  0  0  0  0  0  0  0  0  0  0  0
   -8.7038    0.6284   -1.1248 H   0  0  0  0  0  0  0  0  0  0  0  0
   -7.1400    1.7180    0.4144 H   0  0  0  0  0  0  0  0  0  0  0  0
   -7.7159    2.7370   -0.8964 H   0  0  0  0  0  0  0  0  0  0  0  0
   -5.7240    2.5826   -2.1493 H   0  0  0  0  0  0  0  0  0  0  0  0
   -5.1832    2.7689   -0.4924 H   0  0  0  0  0  0  0  0  0  0  0  0
  1  2  1  0
  2  3  1  0
  3  4  2  0
  4  5  1  0
  5  6  2  0
  6  7  1  0
  7  8  2  0
  8  9  1  0
  7 10  1  0
  4 11  1  0
  2 12  1  0
 12 13  1  0
 13 14  2  0
 14 15  1  0
 15 16  2  0
 16 17  1  0
 17 18  2  0
 18 19  1  0
 15 20  1  0
 20 21  1  0
 21 22  2  0
 22 23  1  0
 23 24  1  0
 23 25  1  0
 25 26  1  0
 26 27  1  0
 27 28  1  0
 28 29  1  0
 29 30  1  0
  8  3  1  0
 18 13  1  0
 24 20  2  0
 30 25  1  0
  1 31  1  0
  1 32  1  0
  1 33  1  0
  2 34  1  1
  5 35  1  0
  6 36  1  0
 14 37  1  0
 16 38  1  0
 19 39  1  0
 19 40  1  0
 21 41  1  0
 24 42  1  0
 25 43  1  0
 26 44  1  0
 26 45  1  0
 27 46  1  0
 27 47  1  0
 28 48  1  0
 29 49  1  0
 29 50  1  0
 30 51  1  0
 30 52  1  0
M  END
>  <energy_abs>  (218) 
30.322808692104342

>  <SMILES>  (218) 
C[C@H](c1c(ccc(c1Cl)F)Cl)Oc2cc(cnc2N)c3cnn(c3)C4CCNCC4

>  <cluster_no>  (218) 
218

>  <fda_drugs_id>  (218) 
KTEIFNKAUNYNJU-GFCCVEGCSA-N

>  <initial_conformation_id>  (218) 
63

>  <minimize_method>  (218) 
MMFF

$$$$

     RDKit          3D

 52 55  0  0  0  0  0  0  0  0999 V2000
    6.2217    0.8017    0.3766 C   0  0  0  0  0  0  0  0  0  0  0  0
    4.7847    0.9298    0.9039 C   0  0  2  0  0  0  0  0  0  0  0  0
    3.9912   -0.3539    1.1679 C   0  0  0  0  0  0  0  0  0  0  0  0
    3.1177   -0.4104    2.2807 C   0  0  0  0  0  0  0  0  0  0  0  0
    2.3405   -1.5456    2.5543 C   0  0  0  0  0  0  0  0  0  0  0  0
    2.4146   -2.6599    1.7321 C   0  0  0  0  0  0  0  0  0  0  0  0
    3.2513   -2.6268    0.6346 C   0  0  0  0  0  0  0  0  0  0  0  0
    4.0281   -1.4977    0.3385 C   0  0  0  0  0  0  0  0  0  0  0  0
    4.9796   -1.6142   -1.0958 Cl  0  0  0  0  0  0  0  0  0  0  0  0
    3.2959   -3.7133   -0.1490 F   0  0  0  0  0  0  0  0  0  0  0  0
    2.9023    0.9169    3.3694 Cl  0  0  0  0  0  0  0  0  0  0  0  0
    4.1012    2.0228    0.2281 O   0  0  0  0  0  0  0  0  0  0  0  0
    3.1661    1.6575   -0.6985 C   0  0  0  0  0  0  0  0  0  0  0  0
    1.8388    1.5118   -0.2930 C   0  0  0  0  0  0  0  0  0  0  0  0
    0.8641    1.1152   -1.2084 C   0  0  0  0  0  0  0  0  0  0  0  0
    1.2897    0.9499   -2.5252 C   0  0  0  0  0  0  0  0  0  0  0  0
    2.5596    1.1617   -2.9675 N   0  0  0  0  0  0  0  0  0  0  0  0
    3.4742    1.5278   -2.0525 C   0  0  0  0  0  0  0  0  0  0  0  0
    4.7598    1.7447   -2.5442 N   0  0  0  0  0  0  0  0  0  0  0  0
   -0.5089    0.8763   -0.7857 C   0  0  0  0  0  0  0  0  0  0  0  0
   -1.1113    0.9981    0.4905 C   0  0  0  0  0  0  0  0  0  0  0  0
   -2.4023    0.6644    0.4836 N   0  0  0  0  0  0  0  0  0  0  0  0
   -2.6494    0.3629   -0.8065 N   0  0  0  0  0  0  0  0  0  0  0  0
   -1.5376    0.4659   -1.5989 C   0  0  0  0  0  0  0  0  0  0  0  0
   -3.9949   -0.0199   -1.2333 C   0  0  0  0  0  0  0  0  0  0  0  0
   -5.0417    1.0463   -0.8638 C   0  0  0  0  0  0  0  0  0  0  0  0
   -5.9633    0.5513    0.2440 C   0  0  0  0  0  0  0  0  0  0  0  0
   -6.6801   -0.6539   -0.1717 N   0  0  0  0  0  0  0  0  0  0  0  0
   -5.8517   -1.6654   -0.8188 C   0  0  0  0  0  0  0  0  0  0  0  0
   -4.3550   -1.4116   -0.7025 C   0  0  0  0  0  0  0  0  0  0  0  0
    6.7410   -0.0307    0.8529 H   0  0  0  0  0  0  0  0  0  0  0  0
    6.2746    0.6847   -0.7036 H   0  0  0  0  0  0  0  0  0  0  0  0
    6.7837    1.7191    0.5848 H   0  0  0  0  0  0  0  0  0  0  0  0
    4.9729    1.3431    1.8968 H   0  0  0  0  0  0  0  0  0  0  0  0
    1.6736   -1.5622    3.4108 H   0  0  0  0  0  0  0  0  0  0  0  0
    1.8242   -3.5474    1.9270 H   0  0  0  0  0  0  0  0  0  0  0  0
    1.5883    1.6972    0.7473 H   0  0  0  0  0  0  0  0  0  0  0  0
    0.6083    0.6388   -3.3115 H   0  0  0  0  0  0  0  0  0  0  0  0
    5.1228    2.6344   -2.2280 H   0  0  0  0  0  0  0  0  0  0  0  0
    4.7179    1.6777   -3.5594 H   0  0  0  0  0  0  0  0  0  0  0  0
   -0.6635    1.3150    1.4321 H   0  0  0  0  0  0  0  0  0  0  0  0
   -1.5883    0.2406   -2.6530 H   0  0  0  0  0  0  0  0  0  0  0  0
   -3.9535   -0.0660   -2.3277 H   0  0  0  0  0  0  0  0  0  0  0  0
   -4.5747    1.9933   -0.5659 H   0  0  0  0  0  0  0  0  0  0  0  0
   -5.6448    1.2713   -1.7545 H   0  0  0  0  0  0  0  0  0  0  0  0
   -5.3963    0.3596    1.1621 H   0  0  0  0  0  0  0  0  0  0  0  0
   -6.6963    1.3288    0.4821 H   0  0  0  0  0  0  0  0  0  0  0  0
   -7.1806   -1.0513    0.6281 H   0  0  0  0  0  0  0  0  0  0  0  0
   -6.1291   -1.7019   -1.8756 H   0  0  0  0  0  0  0  0  0  0  0  0
   -6.0873   -2.6510   -0.3982 H   0  0  0  0  0  0  0  0  0  0  0  0
   -4.0531   -1.5139    0.3478 H   0  0  0  0  0  0  0  0  0  0  0  0
   -3.7980   -2.1745   -1.2563 H   0  0  0  0  0  0  0  0  0  0  0  0
  1  2  1  0
  2  3  1  0
  3  4  2  0
  4  5  1  0
  5  6  2  0
  6  7  1  0
  7  8  2  0
  8  9  1  0
  7 10  1  0
  4 11  1  0
  2 12  1  0
 12 13  1  0
 13 14  2  0
 14 15  1  0
 15 16  2  0
 16 17  1  0
 17 18  2  0
 18 19  1  0
 15 20  1  0
 20 21  1  0
 21 22  2  0
 22 23  1  0
 23 24  1  0
 23 25  1  0
 25 26  1  0
 26 27  1  0
 27 28  1  0
 28 29  1  0
 29 30  1  0
  8  3  1  0
 18 13  1  0
 24 20  2  0
 30 25  1  0
  1 31  1  0
  1 32  1  0
  1 33  1  0
  2 34  1  1
  5 35  1  0
  6 36  1  0
 14 37  1  0
 16 38  1  0
 19 39  1  0
 19 40  1  0
 21 41  1  0
 24 42  1  0
 25 43  1  0
 26 44  1  0
 26 45  1  0
 27 46  1  0
 27 47  1  0
 28 48  1  0
 29 49  1  0
 29 50  1  0
 30 51  1  0
 30 52  1  0
M  END
>  <energy_abs>  (219) 
37.907884591959906

>  <SMILES>  (219) 
C[C@H](c1c(ccc(c1Cl)F)Cl)Oc2cc(cnc2N)c3cnn(c3)C4CCNCC4

>  <cluster_no>  (219) 
219

>  <fda_drugs_id>  (219) 
KTEIFNKAUNYNJU-GFCCVEGCSA-N

>  <initial_conformation_id>  (219) 
62

>  <minimize_method>  (219) 
MMFF

$$$$

     RDKit          3D

 52 55  0  0  0  0  0  0  0  0999 V2000
    5.1256    1.5850    2.1904 C   0  0  0  0  0  0  0  0  0  0  0  0
    3.9448    1.0271    1.3891 C   0  0  2  0  0  0  0  0  0  0  0  0
    3.9552   -0.4996    1.4069 C   0  0  0  0  0  0  0  0  0  0  0  0
    3.0735   -1.2089    2.2558 C   0  0  0  0  0  0  0  0  0  0  0  0
    3.0489   -2.6104    2.2835 C   0  0  0  0  0  0  0  0  0  0  0  0
    3.9108   -3.3418    1.4765 C   0  0  0  0  0  0  0  0  0  0  0  0
    4.8010   -2.6686    0.6532 C   0  0  0  0  0  0  0  0  0  0  0  0
    4.8385   -1.2676    0.6124 C   0  0  0  0  0  0  0  0  0  0  0  0
    6.0244   -0.5570   -0.4331 Cl  0  0  0  0  0  0  0  0  0  0  0  0
    5.6367   -3.3971   -0.1024 F   0  0  0  0  0  0  0  0  0  0  0  0
    1.9738   -0.4132    3.3312 Cl  0  0  0  0  0  0  0  0  0  0  0  0
    4.0145    1.5837    0.0671 O   0  0  0  0  0  0  0  0  0  0  0  0
    2.9387    1.4440   -0.7738 C   0  0  0  0  0  0  0  0  0  0  0  0
    1.6310    1.1558   -0.3814 C   0  0  0  0  0  0  0  0  0  0  0  0
    0.6222    1.0348   -1.3430 C   0  0  0  0  0  0  0  0  0  0  0  0
    0.9897    1.2240   -2.6710 C   0  0  0  0  0  0  0  0  0  0  0  0
    2.2437    1.5206   -3.0854 N   0  0  0  0  0  0  0  0  0  0  0  0
    3.1961    1.6316   -2.1438 C   0  0  0  0  0  0  0  0  0  0  0  0
    4.5030    1.9209   -2.5819 N   0  0  0  0  0  0  0  0  0  0  0  0
   -0.7403    0.7163   -0.9563 C   0  0  0  0  0  0  0  0  0  0  0  0
   -1.2456    0.0528    0.1865 C   0  0  0  0  0  0  0  0  0  0  0  0
   -2.5770   -0.0412    0.1862 N   0  0  0  0  0  0  0  0  0  0  0  0
   -2.9388    0.5688   -0.9589 N   0  0  0  0  0  0  0  0  0  0  0  0
   -1.8726    1.0384   -1.6767 C   0  0  0  0  0  0  0  0  0  0  0  0
   -4.3490    0.6774   -1.3262 C   0  0  0  0  0  0  0  0  0  0  0  0
   -5.1810    1.3684   -0.2343 C   0  0  0  0  0  0  0  0  0  0  0  0
   -5.9927    0.3516    0.5582 C   0  0  0  0  0  0  0  0  0  0  0  0
   -6.9405   -0.3722   -0.2924 N   0  0  0  0  0  0  0  0  0  0  0  0
   -6.4345   -0.6971   -1.6249 C   0  0  0  0  0  0  0  0  0  0  0  0
   -4.9153   -0.6937   -1.7230 C   0  0  0  0  0  0  0  0  0  0  0  0
    5.1158    1.2213    3.2232 H   0  0  0  0  0  0  0  0  0  0  0  0
    6.0902    1.3241    1.7446 H   0  0  0  0  0  0  0  0  0  0  0  0
    5.0831    2.6799    2.2082 H   0  0  0  0  0  0  0  0  0  0  0  0
    3.0551    1.4413    1.8700 H   0  0  0  0  0  0  0  0  0  0  0  0
    2.3586   -3.1377    2.9396 H   0  0  0  0  0  0  0  0  0  0  0  0
    3.9029   -4.4276    1.4892 H   0  0  0  0  0  0  0  0  0  0  0  0
    1.3703    1.0471    0.6636 H   0  0  0  0  0  0  0  0  0  0  0  0
    0.2721    1.1335   -3.4816 H   0  0  0  0  0  0  0  0  0  0  0  0
    4.8210    2.7427   -2.0750 H   0  0  0  0  0  0  0  0  0  0  0  0
    5.1036    1.1590   -2.2718 H   0  0  0  0  0  0  0  0  0  0  0  0
   -0.6994   -0.3722    1.0188 H   0  0  0  0  0  0  0  0  0  0  0  0
   -2.0164    1.5599   -2.6130 H   0  0  0  0  0  0  0  0  0  0  0  0
   -4.3707    1.3299   -2.2099 H   0  0  0  0  0  0  0  0  0  0  0  0
   -5.8730    2.0777   -0.7084 H   0  0  0  0  0  0  0  0  0  0  0  0
   -4.5535    1.9617    0.4415 H   0  0  0  0  0  0  0  0  0  0  0  0
   -6.5560    0.8646    1.3451 H   0  0  0  0  0  0  0  0  0  0  0  0
   -5.3258   -0.3598    1.0597 H   0  0  0  0  0  0  0  0  0  0  0  0
   -7.2295   -1.2238    0.1906 H   0  0  0  0  0  0  0  0  0  0  0  0
   -6.8229   -1.6759   -1.9281 H   0  0  0  0  0  0  0  0  0  0  0  0
   -6.8453    0.0297   -2.3360 H   0  0  0  0  0  0  0  0  0  0  0  0
   -4.5129   -1.4921   -1.0854 H   0  0  0  0  0  0  0  0  0  0  0  0
   -4.6041   -0.9385   -2.7461 H   0  0  0  0  0  0  0  0  0  0  0  0
  1  2  1  0
  2  3  1  0
  3  4  2  0
  4  5  1  0
  5  6  2  0
  6  7  1  0
  7  8  2  0
  8  9  1  0
  7 10  1  0
  4 11  1  0
  2 12  1  0
 12 13  1  0
 13 14  2  0
 14 15  1  0
 15 16  2  0
 16 17  1  0
 17 18  2  0
 18 19  1  0
 15 20  1  0
 20 21  1  0
 21 22  2  0
 22 23  1  0
 23 24  1  0
 23 25  1  0
 25 26  1  0
 26 27  1  0
 27 28  1  0
 28 29  1  0
 29 30  1  0
  8  3  1  0
 18 13  1  0
 24 20  2  0
 30 25  1  0
  1 31  1  0
  1 32  1  0
  1 33  1  0
  2 34  1  1
  5 35  1  0
  6 36  1  0
 14 37  1  0
 16 38  1  0
 19 39  1  0
 19 40  1  0
 21 41  1  0
 24 42  1  0
 25 43  1  0
 26 44  1  0
 26 45  1  0
 27 46  1  0
 27 47  1  0
 28 48  1  0
 29 49  1  0
 29 50  1  0
 30 51  1  0
 30 52  1  0
M  END
>  <energy_abs>  (220) 
36.36428033489995

>  <SMILES>  (220) 
C[C@H](c1c(ccc(c1Cl)F)Cl)Oc2cc(cnc2N)c3cnn(c3)C4CCNCC4

>  <cluster_no>  (220) 
220

>  <fda_drugs_id>  (220) 
KTEIFNKAUNYNJU-GFCCVEGCSA-N

>  <initial_conformation_id>  (220) 
60

>  <minimize_method>  (220) 
MMFF

$$$$

     RDKit          3D

 52 55  0  0  0  0  0  0  0  0999 V2000
    3.8043    1.4067    2.5575 C   0  0  0  0  0  0  0  0  0  0  0  0
    3.4741    0.4164    1.4378 C   0  0  2  0  0  0  0  0  0  0  0  0
    4.4711   -0.7380    1.3884 C   0  0  0  0  0  0  0  0  0  0  0  0
    4.0971   -2.0258    1.8405 C   0  0  0  0  0  0  0  0  0  0  0  0
    4.9919   -3.1055    1.8057 C   0  0  0  0  0  0  0  0  0  0  0  0
    6.2834   -2.9311    1.3254 C   0  0  0  0  0  0  0  0  0  0  0  0
    6.6769   -1.6752    0.8891 C   0  0  0  0  0  0  0  0  0  0  0  0
    5.7956   -0.5848    0.9154 C   0  0  0  0  0  0  0  0  0  0  0  0
    6.4177    0.9238    0.3328 Cl  0  0  0  0  0  0  0  0  0  0  0  0
    7.9312   -1.5274    0.4365 F   0  0  0  0  0  0  0  0  0  0  0  0
    2.5256   -2.3726    2.4823 Cl  0  0  0  0  0  0  0  0  0  0  0  0
    3.4429    1.1344    0.1896 O   0  0  0  0  0  0  0  0  0  0  0  0
    2.4403    0.7428   -0.6615 C   0  0  0  0  0  0  0  0  0  0  0  0
    1.0938    0.8631   -0.3130 C   0  0  0  0  0  0  0  0  0  0  0  0
    0.1092    0.4986   -1.2327 C   0  0  0  0  0  0  0  0  0  0  0  0
    0.5432    0.0367   -2.4719 C   0  0  0  0  0  0  0  0  0  0  0  0
    1.8428   -0.0595   -2.8464 N   0  0  0  0  0  0  0  0  0  0  0  0
    2.7749    0.3110   -1.9524 C   0  0  0  0  0  0  0  0  0  0  0  0
    4.1172    0.2535   -2.3621 N   0  0  0  0  0  0  0  0  0  0  0  0
   -1.2973    0.6067   -0.9008 C   0  0  0  0  0  0  0  0  0  0  0  0
   -1.9644    0.4994    0.3405 C   0  0  0  0  0  0  0  0  0  0  0  0
   -3.2819    0.6880    0.2373 N   0  0  0  0  0  0  0  0  0  0  0  0
   -3.4700    0.9196   -1.0755 N   0  0  0  0  0  0  0  0  0  0  0  0
   -2.3086    0.8798   -1.7987 C   0  0  0  0  0  0  0  0  0  0  0  0
   -4.8075    1.1829   -1.6008 C   0  0  0  0  0  0  0  0  0  0  0  0
   -5.6112   -0.1188   -1.7298 C   0  0  0  0  0  0  0  0  0  0  0  0
   -7.1052    0.1789   -1.7575 C   0  0  0  0  0  0  0  0  0  0  0  0
   -7.5753    0.8281   -0.5355 N   0  0  0  0  0  0  0  0  0  0  0  0
   -6.5681    1.6378    0.1521 C   0  0  0  0  0  0  0  0  0  0  0  0
   -5.5586    2.2632   -0.8036 C   0  0  0  0  0  0  0  0  0  0  0  0
    3.0307    2.1827    2.6061 H   0  0  0  0  0  0  0  0  0  0  0  0
    4.7506    1.9299    2.3905 H   0  0  0  0  0  0  0  0  0  0  0  0
    3.8558    0.9061    3.5300 H   0  0  0  0  0  0  0  0  0  0  0  0
    2.4725    0.0438    1.6674 H   0  0  0  0  0  0  0  0  0  0  0  0
    4.6827   -4.0908    2.1527 H   0  0  0  0  0  0  0  0  0  0  0  0
    6.9842   -3.7593    1.2926 H   0  0  0  0  0  0  0  0  0  0  0  0
    0.8189    1.2715    0.6546 H   0  0  0  0  0  0  0  0  0  0  0  0
   -0.1582   -0.2849   -3.2371 H   0  0  0  0  0  0  0  0  0  0  0  0
    4.6245   -0.3555   -1.7291 H   0  0  0  0  0  0  0  0  0  0  0  0
    4.5189    1.1805   -2.2344 H   0  0  0  0  0  0  0  0  0  0  0  0
   -1.5467    0.2880    1.3170 H   0  0  0  0  0  0  0  0  0  0  0  0
   -2.3058    1.0602   -2.8648 H   0  0  0  0  0  0  0  0  0  0  0  0
   -4.6450    1.5895   -2.6088 H   0  0  0  0  0  0  0  0  0  0  0  0
   -5.3928   -0.8061   -0.9013 H   0  0  0  0  0  0  0  0  0  0  0  0
   -5.3160   -0.6447   -2.6464 H   0  0  0  0  0  0  0  0  0  0  0  0
   -7.3311    0.8197   -2.6189 H   0  0  0  0  0  0  0  0  0  0  0  0
   -7.6664   -0.7508   -1.8993 H   0  0  0  0  0  0  0  0  0  0  0  0
   -8.4066    1.3827   -0.7358 H   0  0  0  0  0  0  0  0  0  0  0  0
   -7.0752    2.4253    0.7212 H   0  0  0  0  0  0  0  0  0  0  0  0
   -6.0538    1.0110    0.8899 H   0  0  0  0  0  0  0  0  0  0  0  0
   -4.8690    2.9160   -0.2549 H   0  0  0  0  0  0  0  0  0  0  0  0
   -6.0989    2.9132   -1.5056 H   0  0  0  0  0  0  0  0  0  0  0  0
  1  2  1  0
  2  3  1  0
  3  4  2  0
  4  5  1  0
  5  6  2  0
  6  7  1  0
  7  8  2  0
  8  9  1  0
  7 10  1  0
  4 11  1  0
  2 12  1  0
 12 13  1  0
 13 14  2  0
 14 15  1  0
 15 16  2  0
 16 17  1  0
 17 18  2  0
 18 19  1  0
 15 20  1  0
 20 21  1  0
 21 22  2  0
 22 23  1  0
 23 24  1  0
 23 25  1  0
 25 26  1  0
 26 27  1  0
 27 28  1  0
 28 29  1  0
 29 30  1  0
  8  3  1  0
 18 13  1  0
 24 20  2  0
 30 25  1  0
  1 31  1  0
  1 32  1  0
  1 33  1  0
  2 34  1  1
  5 35  1  0
  6 36  1  0
 14 37  1  0
 16 38  1  0
 19 39  1  0
 19 40  1  0
 21 41  1  0
 24 42  1  0
 25 43  1  0
 26 44  1  0
 26 45  1  0
 27 46  1  0
 27 47  1  0
 28 48  1  0
 29 49  1  0
 29 50  1  0
 30 51  1  0
 30 52  1  0
M  END
>  <energy_abs>  (221) 
39.56340584756932

>  <SMILES>  (221) 
C[C@H](c1c(ccc(c1Cl)F)Cl)Oc2cc(cnc2N)c3cnn(c3)C4CCNCC4

>  <cluster_no>  (221) 
221

>  <fda_drugs_id>  (221) 
KTEIFNKAUNYNJU-GFCCVEGCSA-N

>  <initial_conformation_id>  (221) 
59

>  <minimize_method>  (221) 
MMFF

$$$$

     RDKit          3D

 52 55  0  0  0  0  0  0  0  0999 V2000
    2.5332   -1.5810    1.7100 C   0  0  0  0  0  0  0  0  0  0  0  0
    3.5235   -1.3334    0.5633 C   0  0  2  0  0  0  0  0  0  0  0  0
    4.9458   -1.1570    1.0924 C   0  0  0  0  0  0  0  0  0  0  0  0
    5.9252   -2.1629    0.8922 C   0  0  0  0  0  0  0  0  0  0  0  0
    7.2335   -2.0153    1.3726 C   0  0  0  0  0  0  0  0  0  0  0  0
    7.5988   -0.8808    2.0857 C   0  0  0  0  0  0  0  0  0  0  0  0
    6.6551    0.1112    2.3046 C   0  0  0  0  0  0  0  0  0  0  0  0
    5.3464   -0.0066    1.8130 C   0  0  0  0  0  0  0  0  0  0  0  0
    4.2829    1.3267    2.1256 Cl  0  0  0  0  0  0  0  0  0  0  0  0
    7.0260    1.1922    3.0134 F   0  0  0  0  0  0  0  0  0  0  0  0
    5.5837   -3.6466    0.0680 Cl  0  0  0  0  0  0  0  0  0  0  0  0
    3.2050   -0.1788   -0.2357 O   0  0  0  0  0  0  0  0  0  0  0  0
    2.1135   -0.3650   -1.0422 C   0  0  0  0  0  0  0  0  0  0  0  0
    0.8852    0.1347   -0.6109 C   0  0  0  0  0  0  0  0  0  0  0  0
   -0.2427   -0.0089   -1.4182 C   0  0  0  0  0  0  0  0  0  0  0  0
   -0.0524   -0.6363   -2.6457 C   0  0  0  0  0  0  0  0  0  0  0  0
    1.1414   -1.0964   -3.1044 N   0  0  0  0  0  0  0  0  0  0  0  0
    2.2168   -0.9390   -2.3144 C   0  0  0  0  0  0  0  0  0  0  0  0
    3.4558   -1.3514   -2.8291 N   0  0  0  0  0  0  0  0  0  0  0  0
   -1.5342    0.4927   -0.9875 C   0  0  0  0  0  0  0  0  0  0  0  0
   -1.8641    1.4773   -0.0269 C   0  0  0  0  0  0  0  0  0  0  0  0
   -3.1785    1.6640    0.0963 N   0  0  0  0  0  0  0  0  0  0  0  0
   -3.7089    0.8096   -0.7953 N   0  0  0  0  0  0  0  0  0  0  0  0
   -2.7608    0.0736   -1.4586 C   0  0  0  0  0  0  0  0  0  0  0  0
   -5.1561    0.7477   -1.0105 C   0  0  0  0  0  0  0  0  0  0  0  0
   -5.5600    1.6426   -2.1895 C   0  0  0  0  0  0  0  0  0  0  0  0
   -6.9539    2.2294   -2.0002 C   0  0  0  0  0  0  0  0  0  0  0  0
   -7.0463    3.0482   -0.7978 N   0  0  0  0  0  0  0  0  0  0  0  0
   -6.3414    2.5107    0.3669 C   0  0  0  0  0  0  0  0  0  0  0  0
   -5.9876    1.0313    0.2516 C   0  0  0  0  0  0  0  0  0  0  0  0
    2.3198   -0.6817    2.2940 H   0  0  0  0  0  0  0  0  0  0  0  0
    1.5663   -1.9220    1.3164 H   0  0  0  0  0  0  0  0  0  0  0  0
    2.9013   -2.3602    2.3887 H   0  0  0  0  0  0  0  0  0  0  0  0
    3.4760   -2.2113   -0.0869 H   0  0  0  0  0  0  0  0  0  0  0  0
    7.9732   -2.7989    1.2051 H   0  0  0  0  0  0  0  0  0  0  0  0
    8.6067   -0.7614    2.4734 H   0  0  0  0  0  0  0  0  0  0  0  0
    0.8279    0.6236    0.3563 H   0  0  0  0  0  0  0  0  0  0  0  0
   -0.8715   -0.7825   -3.3443 H   0  0  0  0  0  0  0  0  0  0  0  0
    3.8551   -2.0708   -2.2414 H   0  0  0  0  0  0  0  0  0  0  0  0
    4.0868   -0.5545   -2.8041 H   0  0  0  0  0  0  0  0  0  0  0  0
   -1.2021    2.0727    0.5867 H   0  0  0  0  0  0  0  0  0  0  0  0
   -3.0464   -0.6617   -2.1962 H   0  0  0  0  0  0  0  0  0  0  0  0
   -5.3482   -0.2990   -1.2851 H   0  0  0  0  0  0  0  0  0  0  0  0
   -4.8321    2.4572   -2.3353 H   0  0  0  0  0  0  0  0  0  0  0  0
   -5.5390    1.0502   -3.1137 H   0  0  0  0  0  0  0  0  0  0  0  0
   -7.2059    2.8491   -2.8667 H   0  0  0  0  0  0  0  0  0  0  0  0
   -7.7032    1.4240   -1.9602 H   0  0  0  0  0  0  0  0  0  0  0  0
   -8.0211    3.2397   -0.5732 H   0  0  0  0  0  0  0  0  0  0  0  0
   -6.9617    2.6631    1.2564 H   0  0  0  0  0  0  0  0  0  0  0  0
   -5.4338    3.1053    0.5249 H   0  0  0  0  0  0  0  0  0  0  0  0
   -5.4705    0.6908    1.1575 H   0  0  0  0  0  0  0  0  0  0  0  0
   -6.9215    0.4535    0.2010 H   0  0  0  0  0  0  0  0  0  0  0  0
  1  2  1  0
  2  3  1  0
  3  4  2  0
  4  5  1  0
  5  6  2  0
  6  7  1  0
  7  8  2  0
  8  9  1  0
  7 10  1  0
  4 11  1  0
  2 12  1  0
 12 13  1  0
 13 14  2  0
 14 15  1  0
 15 16  2  0
 16 17  1  0
 17 18  2  0
 18 19  1  0
 15 20  1  0
 20 21  1  0
 21 22  2  0
 22 23  1  0
 23 24  1  0
 23 25  1  0
 25 26  1  0
 26 27  1  0
 27 28  1  0
 28 29  1  0
 29 30  1  0
  8  3  1  0
 18 13  1  0
 24 20  2  0
 30 25  1  0
  1 31  1  0
  1 32  1  0
  1 33  1  0
  2 34  1  6
  5 35  1  0
  6 36  1  0
 14 37  1  0
 16 38  1  0
 19 39  1  0
 19 40  1  0
 21 41  1  0
 24 42  1  0
 25 43  1  0
 26 44  1  0
 26 45  1  0
 27 46  1  0
 27 47  1  0
 28 48  1  0
 29 49  1  0
 29 50  1  0
 30 51  1  0
 30 52  1  0
M  END
>  <energy_abs>  (222) 
42.33232765465062

>  <SMILES>  (222) 
C[C@H](c1c(ccc(c1Cl)F)Cl)Oc2cc(cnc2N)c3cnn(c3)C4CCNCC4

>  <cluster_no>  (222) 
222

>  <fda_drugs_id>  (222) 
KTEIFNKAUNYNJU-GFCCVEGCSA-N

>  <initial_conformation_id>  (222) 
58

>  <minimize_method>  (222) 
MMFF

$$$$

     RDKit          3D

 52 55  0  0  0  0  0  0  0  0999 V2000
    3.6506    0.7569    2.9805 C   0  0  0  0  0  0  0  0  0  0  0  0
    3.4370    0.0551    1.6364 C   0  0  2  0  0  0  0  0  0  0  0  0
    4.5610   -0.9332    1.3426 C   0  0  0  0  0  0  0  0  0  0  0  0
    4.3381   -2.3258    1.4648 C   0  0  0  0  0  0  0  0  0  0  0  0
    5.3471   -3.2593    1.1853 C   0  0  0  0  0  0  0  0  0  0  0  0
    6.6052   -2.8305    0.7835 C   0  0  0  0  0  0  0  0  0  0  0  0
    6.8510   -1.4694    0.6692 C   0  0  0  0  0  0  0  0  0  0  0  0
    5.8548   -0.5221    0.9463 C   0  0  0  0  0  0  0  0  0  0  0  0
    6.3022    1.1455    0.7735 Cl  0  0  0  0  0  0  0  0  0  0  0  0
    8.0774   -1.0799    0.2894 F   0  0  0  0  0  0  0  0  0  0  0  0
    2.8249   -2.9914    1.9886 Cl  0  0  0  0  0  0  0  0  0  0  0  0
    3.3148    1.0669    0.6136 O   0  0  0  0  0  0  0  0  0  0  0  0
    2.3672    0.7306   -0.3201 C   0  0  0  0  0  0  0  0  0  0  0  0
    1.0291    1.0402   -0.0761 C   0  0  0  0  0  0  0  0  0  0  0  0
    0.0705    0.7295   -1.0407 C   0  0  0  0  0  0  0  0  0  0  0  0
    0.5248    0.1314   -2.2153 C   0  0  0  0  0  0  0  0  0  0  0  0
    1.8243   -0.1566   -2.4846 N   0  0  0  0  0  0  0  0  0  0  0  0
    2.7292    0.1647   -1.5461 C   0  0  0  0  0  0  0  0  0  0  0  0
    4.0554   -0.1473   -1.8435 N   0  0  0  0  0  0  0  0  0  0  0  0
   -1.3273    1.0428   -0.8291 C   0  0  0  0  0  0  0  0  0  0  0  0
   -1.9367    2.0995   -0.1124 C   0  0  0  0  0  0  0  0  0  0  0  0
   -3.2703    2.0566   -0.1612 N   0  0  0  0  0  0  0  0  0  0  0  0
   -3.5270    0.9614   -0.9032 N   0  0  0  0  0  0  0  0  0  0  0  0
   -2.3923    0.3258   -1.3342 C   0  0  0  0  0  0  0  0  0  0  0  0
   -4.9004    0.5709   -1.1966 C   0  0  0  0  0  0  0  0  0  0  0  0
   -5.5185    1.4618   -2.2893 C   0  0  0  0  0  0  0  0  0  0  0  0
   -7.0317    1.6027   -2.1316 C   0  0  0  0  0  0  0  0  0  0  0  0
   -7.6028    0.3426   -1.6639 N   0  0  0  0  0  0  0  0  0  0  0  0
   -7.1887    0.0316   -0.2916 C   0  0  0  0  0  0  0  0  0  0  0  0
   -5.7840    0.5312    0.0549 C   0  0  0  0  0  0  0  0  0  0  0  0
    3.7943    0.0364    3.7903 H   0  0  0  0  0  0  0  0  0  0  0  0
    2.7812    1.3782    3.2191 H   0  0  0  0  0  0  0  0  0  0  0  0
    4.5107    1.4304    2.9658 H   0  0  0  0  0  0  0  0  0  0  0  0
    2.4761   -0.4638    1.7280 H   0  0  0  0  0  0  0  0  0  0  0  0
    5.1513   -4.3267    1.2780 H   0  0  0  0  0  0  0  0  0  0  0  0
    7.3923   -3.5457    0.5612 H   0  0  0  0  0  0  0  0  0  0  0  0
    0.7531    1.5144    0.8610 H   0  0  0  0  0  0  0  0  0  0  0  0
   -0.1589   -0.1331   -3.0163 H   0  0  0  0  0  0  0  0  0  0  0  0
    4.0880   -0.4414   -2.8146 H   0  0  0  0  0  0  0  0  0  0  0  0
    4.6585    0.6465   -1.6472 H   0  0  0  0  0  0  0  0  0  0  0  0
   -1.4626    2.9045    0.4367 H   0  0  0  0  0  0  0  0  0  0  0  0
   -2.4490   -0.5622   -1.9485 H   0  0  0  0  0  0  0  0  0  0  0  0
   -4.8394   -0.4563   -1.5870 H   0  0  0  0  0  0  0  0  0  0  0  0
   -5.0735    2.4656   -2.2937 H   0  0  0  0  0  0  0  0  0  0  0  0
   -5.2866    1.0210   -3.2692 H   0  0  0  0  0  0  0  0  0  0  0  0
   -7.4703    1.8716   -3.1010 H   0  0  0  0  0  0  0  0  0  0  0  0
   -7.2783    2.4184   -1.4363 H   0  0  0  0  0  0  0  0  0  0  0  0
   -8.6212    0.3839   -1.7091 H   0  0  0  0  0  0  0  0  0  0  0  0
   -7.9035    0.4641    0.4201 H   0  0  0  0  0  0  0  0  0  0  0  0
   -7.2364   -1.0552   -0.1613 H   0  0  0  0  0  0  0  0  0  0  0  0
   -5.3409   -0.1137    0.8254 H   0  0  0  0  0  0  0  0  0  0  0  0
   -5.8563    1.5359    0.4957 H   0  0  0  0  0  0  0  0  0  0  0  0
  1  2  1  0
  2  3  1  0
  3  4  2  0
  4  5  1  0
  5  6  2  0
  6  7  1  0
  7  8  2  0
  8  9  1  0
  7 10  1  0
  4 11  1  0
  2 12  1  0
 12 13  1  0
 13 14  2  0
 14 15  1  0
 15 16  2  0
 16 17  1  0
 17 18  2  0
 18 19  1  0
 15 20  1  0
 20 21  1  0
 21 22  2  0
 22 23  1  0
 23 24  1  0
 23 25  1  0
 25 26  1  0
 26 27  1  0
 27 28  1  0
 28 29  1  0
 29 30  1  0
  8  3  1  0
 18 13  1  0
 24 20  2  0
 30 25  1  0
  1 31  1  0
  1 32  1  0
  1 33  1  0
  2 34  1  1
  5 35  1  0
  6 36  1  0
 14 37  1  0
 16 38  1  0
 19 39  1  0
 19 40  1  0
 21 41  1  0
 24 42  1  0
 25 43  1  0
 26 44  1  0
 26 45  1  0
 27 46  1  0
 27 47  1  0
 28 48  1  0
 29 49  1  0
 29 50  1  0
 30 51  1  0
 30 52  1  0
M  END
>  <energy_abs>  (223) 
27.176741409262664

>  <SMILES>  (223) 
C[C@H](c1c(ccc(c1Cl)F)Cl)Oc2cc(cnc2N)c3cnn(c3)C4CCNCC4

>  <cluster_no>  (223) 
223

>  <fda_drugs_id>  (223) 
KTEIFNKAUNYNJU-GFCCVEGCSA-N

>  <initial_conformation_id>  (223) 
57

>  <minimize_method>  (223) 
MMFF

$$$$

     RDKit          3D

 52 55  0  0  0  0  0  0  0  0999 V2000
    6.2752    0.5160    0.2886 C   0  0  0  0  0  0  0  0  0  0  0  0
    4.7468    0.5152    0.3909 C   0  0  2  0  0  0  0  0  0  0  0  0
    4.2242   -0.8034    0.9523 C   0  0  0  0  0  0  0  0  0  0  0  0
    3.7650   -0.8737    2.2883 C   0  0  0  0  0  0  0  0  0  0  0  0
    3.2399   -2.0586    2.8193 C   0  0  0  0  0  0  0  0  0  0  0  0
    3.1792   -3.2092    2.0422 C   0  0  0  0  0  0  0  0  0  0  0  0
    3.6495   -3.1717    0.7381 C   0  0  0  0  0  0  0  0  0  0  0  0
    4.1737   -1.9924    0.1893 C   0  0  0  0  0  0  0  0  0  0  0  0
    4.7374   -2.0873   -1.4463 Cl  0  0  0  0  0  0  0  0  0  0  0  0
    3.5917   -4.2980    0.0112 F   0  0  0  0  0  0  0  0  0  0  0  0
    3.8297    0.4751    3.3718 Cl  0  0  0  0  0  0  0  0  0  0  0  0
    4.2156    0.8121   -0.9191 O   0  0  0  0  0  0  0  0  0  0  0  0
    3.0401    1.5167   -0.8457 C   0  0  0  0  0  0  0  0  0  0  0  0
    1.8321    0.8255   -0.7808 C   0  0  0  0  0  0  0  0  0  0  0  0
    0.6354    1.5389   -0.7246 C   0  0  0  0  0  0  0  0  0  0  0  0
    0.7305    2.9285   -0.7561 C   0  0  0  0  0  0  0  0  0  0  0  0
    1.8933    3.6224   -0.8515 N   0  0  0  0  0  0  0  0  0  0  0  0
    3.0336    2.9155   -0.9165 C   0  0  0  0  0  0  0  0  0  0  0  0
    4.2337    3.6339   -1.0395 N   0  0  0  0  0  0  0  0  0  0  0  0
   -0.6358    0.8485   -0.6317 C   0  0  0  0  0  0  0  0  0  0  0  0
   -0.9585   -0.4208   -0.1003 C   0  0  0  0  0  0  0  0  0  0  0  0
   -2.2541   -0.7196   -0.2229 N   0  0  0  0  0  0  0  0  0  0  0  0
   -2.7723    0.3563   -0.8444 N   0  0  0  0  0  0  0  0  0  0  0  0
   -1.8418    1.3249   -1.1042 C   0  0  0  0  0  0  0  0  0  0  0  0
   -4.1867    0.3983   -1.1907 C   0  0  0  0  0  0  0  0  0  0  0  0
   -5.0858    0.2857    0.0457 C   0  0  0  0  0  0  0  0  0  0  0  0
   -6.5561    0.2958   -0.3629 C   0  0  0  0  0  0  0  0  0  0  0  0
   -6.8601   -0.7500   -1.3402 N   0  0  0  0  0  0  0  0  0  0  0  0
   -6.0409   -0.6191   -2.5451 C   0  0  0  0  0  0  0  0  0  0  0  0
   -4.5500   -0.6726   -2.2265 C   0  0  0  0  0  0  0  0  0  0  0  0
    6.6402   -0.2016   -0.4526 H   0  0  0  0  0  0  0  0  0  0  0  0
    6.7476    0.2879    1.2504 H   0  0  0  0  0  0  0  0  0  0  0  0
    6.6252    1.5012   -0.0434 H   0  0  0  0  0  0  0  0  0  0  0  0
    4.4937    1.3511    1.0518 H   0  0  0  0  0  0  0  0  0  0  0  0
    2.8832   -2.0907    3.8477 H   0  0  0  0  0  0  0  0  0  0  0  0
    2.7813   -4.1343    2.4454 H   0  0  0  0  0  0  0  0  0  0  0  0
    1.8340   -0.2592   -0.7980 H   0  0  0  0  0  0  0  0  0  0  0  0
   -0.1500    3.5622   -0.7000 H   0  0  0  0  0  0  0  0  0  0  0  0
    4.7313    3.2748   -1.8512 H   0  0  0  0  0  0  0  0  0  0  0  0
    4.8142    3.4532   -0.2272 H   0  0  0  0  0  0  0  0  0  0  0  0
   -0.3046   -1.1415    0.3737 H   0  0  0  0  0  0  0  0  0  0  0  0
   -2.1136    2.2397   -1.6122 H   0  0  0  0  0  0  0  0  0  0  0  0
   -4.3568    1.3841   -1.6442 H   0  0  0  0  0  0  0  0  0  0  0  0
   -4.8691   -0.6377    0.5994 H   0  0  0  0  0  0  0  0  0  0  0  0
   -4.8871    1.1167    0.7337 H   0  0  0  0  0  0  0  0  0  0  0  0
   -6.8306    1.2753   -0.7737 H   0  0  0  0  0  0  0  0  0  0  0  0
   -7.1828    0.1438    0.5247 H   0  0  0  0  0  0  0  0  0  0  0  0
   -6.6927   -1.6644   -0.9145 H   0  0  0  0  0  0  0  0  0  0  0  0
   -6.2858    0.3184   -3.0589 H   0  0  0  0  0  0  0  0  0  0  0  0
   -6.2970   -1.4293   -3.2376 H   0  0  0  0  0  0  0  0  0  0  0  0
   -3.9697   -0.5234   -3.1446 H   0  0  0  0  0  0  0  0  0  0  0  0
   -4.2931   -1.6724   -1.8536 H   0  0  0  0  0  0  0  0  0  0  0  0
  1  2  1  0
  2  3  1  0
  3  4  2  0
  4  5  1  0
  5  6  2  0
  6  7  1  0
  7  8  2  0
  8  9  1  0
  7 10  1  0
  4 11  1  0
  2 12  1  0
 12 13  1  0
 13 14  2  0
 14 15  1  0
 15 16  2  0
 16 17  1  0
 17 18  2  0
 18 19  1  0
 15 20  1  0
 20 21  1  0
 21 22  2  0
 22 23  1  0
 23 24  1  0
 23 25  1  0
 25 26  1  0
 26 27  1  0
 27 28  1  0
 28 29  1  0
 29 30  1  0
  8  3  1  0
 18 13  1  0
 24 20  2  0
 30 25  1  0
  1 31  1  0
  1 32  1  0
  1 33  1  0
  2 34  1  1
  5 35  1  0
  6 36  1  0
 14 37  1  0
 16 38  1  0
 19 39  1  0
 19 40  1  0
 21 41  1  0
 24 42  1  0
 25 43  1  0
 26 44  1  0
 26 45  1  0
 27 46  1  0
 27 47  1  0
 28 48  1  0
 29 49  1  0
 29 50  1  0
 30 51  1  0
 30 52  1  0
M  END
>  <energy_abs>  (224) 
34.61310027981914

>  <SMILES>  (224) 
C[C@H](c1c(ccc(c1Cl)F)Cl)Oc2cc(cnc2N)c3cnn(c3)C4CCNCC4

>  <cluster_no>  (224) 
224

>  <fda_drugs_id>  (224) 
KTEIFNKAUNYNJU-GFCCVEGCSA-N

>  <initial_conformation_id>  (224) 
56

>  <minimize_method>  (224) 
MMFF

$$$$

     RDKit          3D

 52 55  0  0  0  0  0  0  0  0999 V2000
    3.5786    0.6957    3.0106 C   0  0  0  0  0  0  0  0  0  0  0  0
    3.4532    0.0013    1.6522 C   0  0  2  0  0  0  0  0  0  0  0  0
    4.6893   -0.8345    1.3399 C   0  0  0  0  0  0  0  0  0  0  0  0
    4.6461   -2.2434    1.4588 C   0  0  0  0  0  0  0  0  0  0  0  0
    5.7611   -3.0404    1.1612 C   0  0  0  0  0  0  0  0  0  0  0  0
    6.9498   -2.4550    0.7451 C   0  0  0  0  0  0  0  0  0  0  0  0
    7.0205   -1.0743    0.6363 C   0  0  0  0  0  0  0  0  0  0  0  0
    5.9161   -0.2623    0.9312 C   0  0  0  0  0  0  0  0  0  0  0  0
    6.1510    1.4480    0.7700 Cl  0  0  0  0  0  0  0  0  0  0  0  0
    8.1833   -0.5308    0.2441 F   0  0  0  0  0  0  0  0  0  0  0  0
    3.2370   -3.0934    2.0012 Cl  0  0  0  0  0  0  0  0  0  0  0  0
    3.2103    1.0123    0.6525 O   0  0  0  0  0  0  0  0  0  0  0  0
    2.2774    0.6030   -0.2655 C   0  0  0  0  0  0  0  0  0  0  0  0
    0.9226    0.7817    0.0134 C   0  0  0  0  0  0  0  0  0  0  0  0
   -0.0290    0.3974   -0.9318 C   0  0  0  0  0  0  0  0  0  0  0  0
    0.4531   -0.1413   -2.1237 C   0  0  0  0  0  0  0  0  0  0  0  0
    1.7672   -0.3000   -2.4300 N   0  0  0  0  0  0  0  0  0  0  0  0
    2.6615    0.0897   -1.5063 C   0  0  0  0  0  0  0  0  0  0  0  0
    4.0039   -0.0946   -1.8366 N   0  0  0  0  0  0  0  0  0  0  0  0
   -1.4480    0.5492   -0.6685 C   0  0  0  0  0  0  0  0  0  0  0  0
   -2.1558    0.6388    0.5531 C   0  0  0  0  0  0  0  0  0  0  0  0
   -3.4712    0.7866    0.3814 N   0  0  0  0  0  0  0  0  0  0  0  0
   -3.6185    0.7970   -0.9563 N   0  0  0  0  0  0  0  0  0  0  0  0
   -2.4341    0.6593   -1.6280 C   0  0  0  0  0  0  0  0  0  0  0  0
   -4.9401    0.9486   -1.5524 C   0  0  0  0  0  0  0  0  0  0  0  0
   -5.5748    2.2978   -1.1978 C   0  0  0  0  0  0  0  0  0  0  0  0
   -6.9690    2.4066   -1.8054 C   0  0  0  0  0  0  0  0  0  0  0  0
   -7.8285    1.2937   -1.4018 N   0  0  0  0  0  0  0  0  0  0  0  0
   -7.2551    0.0030   -1.7833 C   0  0  0  0  0  0  0  0  0  0  0  0
   -5.8730   -0.2073   -1.1746 C   0  0  0  0  0  0  0  0  0  0  0  0
    2.6590    1.2476    3.2356 H   0  0  0  0  0  0  0  0  0  0  0  0
    3.7542   -0.0272    3.8140 H   0  0  0  0  0  0  0  0  0  0  0  0
    4.3884    1.4311    3.0288 H   0  0  0  0  0  0  0  0  0  0  0  0
    2.5642   -0.6339    1.7273 H   0  0  0  0  0  0  0  0  0  0  0  0
    5.7045   -4.1231    1.2538 H   0  0  0  0  0  0  0  0  0  0  0  0
    7.8190   -3.0607    0.5092 H   0  0  0  0  0  0  0  0  0  0  0  0
    0.6313    1.2289    0.9586 H   0  0  0  0  0  0  0  0  0  0  0  0
   -0.2203   -0.4851   -2.9043 H   0  0  0  0  0  0  0  0  0  0  0  0
    4.0414   -0.3773   -2.8115 H   0  0  0  0  0  0  0  0  0  0  0  0
    4.5334    0.7519   -1.6489 H   0  0  0  0  0  0  0  0  0  0  0  0
   -1.7690    0.5975    1.5631 H   0  0  0  0  0  0  0  0  0  0  0  0
   -2.4019    0.6638   -2.7086 H   0  0  0  0  0  0  0  0  0  0  0  0
   -4.7860    0.9200   -2.6402 H   0  0  0  0  0  0  0  0  0  0  0  0
   -4.9467    3.1190   -1.5641 H   0  0  0  0  0  0  0  0  0  0  0  0
   -5.6422    2.4177   -0.1085 H   0  0  0  0  0  0  0  0  0  0  0  0
   -7.4337    3.3460   -1.4863 H   0  0  0  0  0  0  0  0  0  0  0  0
   -6.9055    2.4467   -2.8997 H   0  0  0  0  0  0  0  0  0  0  0  0
   -7.9515    1.3177   -0.3875 H   0  0  0  0  0  0  0  0  0  0  0  0
   -7.9265   -0.7952   -1.4482 H   0  0  0  0  0  0  0  0  0  0  0  0
   -7.2050   -0.0708   -2.8765 H   0  0  0  0  0  0  0  0  0  0  0  0
   -5.4559   -1.1596   -1.5243 H   0  0  0  0  0  0  0  0  0  0  0  0
   -5.9646   -0.2880   -0.0834 H   0  0  0  0  0  0  0  0  0  0  0  0
  1  2  1  0
  2  3  1  0
  3  4  2  0
  4  5  1  0
  5  6  2  0
  6  7  1  0
  7  8  2  0
  8  9  1  0
  7 10  1  0
  4 11  1  0
  2 12  1  0
 12 13  1  0
 13 14  2  0
 14 15  1  0
 15 16  2  0
 16 17  1  0
 17 18  2  0
 18 19  1  0
 15 20  1  0
 20 21  1  0
 21 22  2  0
 22 23  1  0
 23 24  1  0
 23 25  1  0
 25 26  1  0
 26 27  1  0
 27 28  1  0
 28 29  1  0
 29 30  1  0
  8  3  1  0
 18 13  1  0
 24 20  2  0
 30 25  1  0
  1 31  1  0
  1 32  1  0
  1 33  1  0
  2 34  1  1
  5 35  1  0
  6 36  1  0
 14 37  1  0
 16 38  1  0
 19 39  1  0
 19 40  1  0
 21 41  1  0
 24 42  1  0
 25 43  1  0
 26 44  1  0
 26 45  1  0
 27 46  1  0
 27 47  1  0
 28 48  1  0
 29 49  1  0
 29 50  1  0
 30 51  1  0
 30 52  1  0
M  END
>  <energy_abs>  (225) 
23.18806211692146

>  <SMILES>  (225) 
C[C@H](c1c(ccc(c1Cl)F)Cl)Oc2cc(cnc2N)c3cnn(c3)C4CCNCC4

>  <cluster_no>  (225) 
225

>  <fda_drugs_id>  (225) 
KTEIFNKAUNYNJU-GFCCVEGCSA-N

>  <initial_conformation_id>  (225) 
55

>  <minimize_method>  (225) 
MMFF

$$$$

     RDKit          3D

 52 55  0  0  0  0  0  0  0  0999 V2000
    3.8566    1.2152    1.6859 C   0  0  0  0  0  0  0  0  0  0  0  0
    3.4630   -0.0755    0.9532 C   0  0  2  0  0  0  0  0  0  0  0  0
    4.4500   -1.2008    1.2571 C   0  0  0  0  0  0  0  0  0  0  0  0
    4.0909   -2.2581    2.1279 C   0  0  0  0  0  0  0  0  0  0  0  0
    4.9862   -3.2940    2.4321 C   0  0  0  0  0  0  0  0  0  0  0  0
    6.2625   -3.3002    1.8812 C   0  0  0  0  0  0  0  0  0  0  0  0
    6.6386   -2.2725    1.0270 C   0  0  0  0  0  0  0  0  0  0  0  0
    5.7564   -1.2312    0.7111 C   0  0  0  0  0  0  0  0  0  0  0  0
    6.3603   -0.0135   -0.3653 Cl  0  0  0  0  0  0  0  0  0  0  0  0
    7.8798   -2.2969    0.5149 F   0  0  0  0  0  0  0  0  0  0  0  0
    2.5392   -2.3604    2.8962 Cl  0  0  0  0  0  0  0  0  0  0  0  0
    3.3890    0.0883   -0.4766 O   0  0  0  0  0  0  0  0  0  0  0  0
    2.3492    0.8852   -0.8867 C   0  0  0  0  0  0  0  0  0  0  0  0
    1.0237    0.4684   -0.7627 C   0  0  0  0  0  0  0  0  0  0  0  0
   -0.0048    1.3005   -1.2115 C   0  0  0  0  0  0  0  0  0  0  0  0
    0.3783    2.5057   -1.7968 C   0  0  0  0  0  0  0  0  0  0  0  0
    1.6615    2.9198   -1.9598 N   0  0  0  0  0  0  0  0  0  0  0  0
    2.6283    2.1020   -1.5167 C   0  0  0  0  0  0  0  0  0  0  0  0
    3.9369    2.5736   -1.6295 N   0  0  0  0  0  0  0  0  0  0  0  0
   -1.3980    0.9171   -1.0567 C   0  0  0  0  0  0  0  0  0  0  0  0
   -1.9870   -0.3371   -0.7596 C   0  0  0  0  0  0  0  0  0  0  0  0
   -3.3174   -0.2811   -0.6681 N   0  0  0  0  0  0  0  0  0  0  0  0
   -3.5990    1.0142   -0.9084 N   0  0  0  0  0  0  0  0  0  0  0  0
   -2.4795    1.7696   -1.1444 C   0  0  0  0  0  0  0  0  0  0  0  0
   -4.9794    1.5022   -0.8939 C   0  0  0  0  0  0  0  0  0  0  0  0
   -5.7101    1.1574   -2.1950 C   0  0  0  0  0  0  0  0  0  0  0  0
   -6.0508   -0.3336   -2.2959 C   0  0  0  0  0  0  0  0  0  0  0  0
   -6.2803   -0.9921   -1.0057 N   0  0  0  0  0  0  0  0  0  0  0  0
   -6.7911   -0.0621   -0.0035 C   0  0  0  0  0  0  0  0  0  0  0  0
   -5.7679    1.0223    0.3390 C   0  0  0  0  0  0  0  0  0  0  0  0
    4.0005    1.0352    2.7598 H   0  0  0  0  0  0  0  0  0  0  0  0
    4.7710    1.6628    1.2862 H   0  0  0  0  0  0  0  0  0  0  0  0
    3.0742    1.9730    1.5757 H   0  0  0  0  0  0  0  0  0  0  0  0
    2.4686   -0.3611    1.3077 H   0  0  0  0  0  0  0  0  0  0  0  0
    4.6879   -4.1039    3.0981 H   0  0  0  0  0  0  0  0  0  0  0  0
    6.9659   -4.0938    2.1082 H   0  0  0  0  0  0  0  0  0  0  0  0
    0.8090   -0.4936   -0.3090 H   0  0  0  0  0  0  0  0  0  0  0  0
   -0.3538    3.2133   -2.1728 H   0  0  0  0  0  0  0  0  0  0  0  0
    4.5643    1.8489   -1.9606 H   0  0  0  0  0  0  0  0  0  0  0  0
    3.9314    3.4076   -2.2076 H   0  0  0  0  0  0  0  0  0  0  0  0
   -1.5024   -1.2921   -0.6041 H   0  0  0  0  0  0  0  0  0  0  0  0
   -2.5574    2.8307   -1.3389 H   0  0  0  0  0  0  0  0  0  0  0  0
   -4.8906    2.5948   -0.8268 H   0  0  0  0  0  0  0  0  0  0  0  0
   -5.1230    1.4613   -3.0700 H   0  0  0  0  0  0  0  0  0  0  0  0
   -6.6438    1.7358   -2.2295 H   0  0  0  0  0  0  0  0  0  0  0  0
   -6.9397   -0.4550   -2.9263 H   0  0  0  0  0  0  0  0  0  0  0  0
   -5.2413   -0.8646   -2.8146 H   0  0  0  0  0  0  0  0  0  0  0  0
   -5.3628   -1.3325   -0.6787 H   0  0  0  0  0  0  0  0  0  0  0  0
   -7.0464   -0.6137    0.9077 H   0  0  0  0  0  0  0  0  0  0  0  0
   -7.7275    0.3901   -0.3556 H   0  0  0  0  0  0  0  0  0  0  0  0
   -6.3136    1.8726    0.7680 H   0  0  0  0  0  0  0  0  0  0  0  0
   -5.0922    0.6679    1.1268 H   0  0  0  0  0  0  0  0  0  0  0  0
  1  2  1  0
  2  3  1  0
  3  4  2  0
  4  5  1  0
  5  6  2  0
  6  7  1  0
  7  8  2  0
  8  9  1  0
  7 10  1  0
  4 11  1  0
  2 12  1  0
 12 13  1  0
 13 14  2  0
 14 15  1  0
 15 16  2  0
 16 17  1  0
 17 18  2  0
 18 19  1  0
 15 20  1  0
 20 21  1  0
 21 22  2  0
 22 23  1  0
 23 24  1  0
 23 25  1  0
 25 26  1  0
 26 27  1  0
 27 28  1  0
 28 29  1  0
 29 30  1  0
  8  3  1  0
 18 13  1  0
 24 20  2  0
 30 25  1  0
  1 31  1  0
  1 32  1  0
  1 33  1  0
  2 34  1  1
  5 35  1  0
  6 36  1  0
 14 37  1  0
 16 38  1  0
 19 39  1  0
 19 40  1  0
 21 41  1  0
 24 42  1  0
 25 43  1  0
 26 44  1  0
 26 45  1  0
 27 46  1  0
 27 47  1  0
 28 48  1  0
 29 49  1  0
 29 50  1  0
 30 51  1  0
 30 52  1  0
M  END
>  <energy_abs>  (226) 
30.168435672757745

>  <SMILES>  (226) 
C[C@H](c1c(ccc(c1Cl)F)Cl)Oc2cc(cnc2N)c3cnn(c3)C4CCNCC4

>  <cluster_no>  (226) 
226

>  <fda_drugs_id>  (226) 
KTEIFNKAUNYNJU-GFCCVEGCSA-N

>  <initial_conformation_id>  (226) 
54

>  <minimize_method>  (226) 
MMFF

$$$$

     RDKit          3D

 52 55  0  0  0  0  0  0  0  0999 V2000
    6.1215    0.8367    0.6569 C   0  0  0  0  0  0  0  0  0  0  0  0
    4.5975    0.7237    0.5684 C   0  0  2  0  0  0  0  0  0  0  0  0
    4.1174   -0.6673    0.9720 C   0  0  0  0  0  0  0  0  0  0  0  0
    3.5035   -0.8713    2.2308 C   0  0  0  0  0  0  0  0  0  0  0  0
    3.0422   -2.1353    2.6261 C   0  0  0  0  0  0  0  0  0  0  0  0
    3.1941   -3.2313    1.7859 C   0  0  0  0  0  0  0  0  0  0  0  0
    3.8075   -3.0590    0.5536 C   0  0  0  0  0  0  0  0  0  0  0  0
    4.2687   -1.8009    0.1396 C   0  0  0  0  0  0  0  0  0  0  0  0
    5.0216   -1.7280   -1.4191 Cl  0  0  0  0  0  0  0  0  0  0  0  0
    3.9556   -4.1356   -0.2334 F   0  0  0  0  0  0  0  0  0  0  0  0
    3.2880    0.4042    3.3830 Cl  0  0  0  0  0  0  0  0  0  0  0  0
    4.2011    1.0765   -0.7731 O   0  0  0  0  0  0  0  0  0  0  0  0
    2.9884    1.7201   -0.7925 C   0  0  0  0  0  0  0  0  0  0  0  0
    1.8167    0.9723   -0.9051 C   0  0  0  0  0  0  0  0  0  0  0  0
    0.5843    1.6258   -0.9406 C   0  0  0  0  0  0  0  0  0  0  0  0
    0.6169    3.0181   -0.8816 C   0  0  0  0  0  0  0  0  0  0  0  0
    1.7466    3.7683   -0.8007 N   0  0  0  0  0  0  0  0  0  0  0  0
    2.9208    3.1188   -0.7798 C   0  0  0  0  0  0  0  0  0  0  0  0
    4.0895    3.8953   -0.7164 N   0  0  0  0  0  0  0  0  0  0  0  0
   -0.6568    0.8777   -1.0456 C   0  0  0  0  0  0  0  0  0  0  0  0
   -0.8987   -0.4637   -1.4331 C   0  0  0  0  0  0  0  0  0  0  0  0
   -2.1919   -0.7906   -1.3994 N   0  0  0  0  0  0  0  0  0  0  0  0
   -2.7957    0.3449   -1.0000 N   0  0  0  0  0  0  0  0  0  0  0  0
   -1.9172    1.3688   -0.7675 C   0  0  0  0  0  0  0  0  0  0  0  0
   -4.2479    0.4057   -0.8640 C   0  0  0  0  0  0  0  0  0  0  0  0
   -4.7060   -0.2669    0.4374 C   0  0  0  0  0  0  0  0  0  0  0  0
   -6.1841   -0.6273    0.3529 C   0  0  0  0  0  0  0  0  0  0  0  0
   -6.4825   -1.5685   -0.7261 N   0  0  0  0  0  0  0  0  0  0  0  0
   -5.5311   -1.5390   -1.8389 C   0  0  0  0  0  0  0  0  0  0  0  0
   -4.9850   -0.1396   -2.1011 C   0  0  0  0  0  0  0  0  0  0  0  0
    6.6325    0.1884   -0.0615 H   0  0  0  0  0  0  0  0  0  0  0  0
    6.4355    1.8587    0.4200 H   0  0  0  0  0  0  0  0  0  0  0  0
    6.4866    0.5865    1.6599 H   0  0  0  0  0  0  0  0  0  0  0  0
    4.2062    1.4893    1.2494 H   0  0  0  0  0  0  0  0  0  0  0  0
    2.5683   -2.2704    3.5977 H   0  0  0  0  0  0  0  0  0  0  0  0
    2.8501   -4.2172    2.0855 H   0  0  0  0  0  0  0  0  0  0  0  0
    1.8797   -0.1087   -0.9657 H   0  0  0  0  0  0  0  0  0  0  0  0
   -0.2920    3.6121   -0.9135 H   0  0  0  0  0  0  0  0  0  0  0  0
    4.7038    3.5997   -1.4722 H   0  0  0  0  0  0  0  0  0  0  0  0
    4.5703    3.7002    0.1553 H   0  0  0  0  0  0  0  0  0  0  0  0
   -0.1863   -1.2177   -1.7437 H   0  0  0  0  0  0  0  0  0  0  0  0
   -2.2665    2.3331   -0.4254 H   0  0  0  0  0  0  0  0  0  0  0  0
   -4.4854    1.4769   -0.8023 H   0  0  0  0  0  0  0  0  0  0  0  0
   -4.1203   -1.1726    0.6444 H   0  0  0  0  0  0  0  0  0  0  0  0
   -4.5306    0.4088    1.2837 H   0  0  0  0  0  0  0  0  0  0  0  0
   -6.5169   -1.0634    1.3011 H   0  0  0  0  0  0  0  0  0  0  0  0
   -6.7692    0.2883    0.2025 H   0  0  0  0  0  0  0  0  0  0  0  0
   -7.4323   -1.4159   -1.0657 H   0  0  0  0  0  0  0  0  0  0  0  0
   -6.0258   -1.9182   -2.7397 H   0  0  0  0  0  0  0  0  0  0  0  0
   -4.7108   -2.2343   -1.6241 H   0  0  0  0  0  0  0  0  0  0  0  0
   -5.8272    0.5263   -2.3369 H   0  0  0  0  0  0  0  0  0  0  0  0
   -4.3427   -0.1416   -2.9909 H   0  0  0  0  0  0  0  0  0  0  0  0
  1  2  1  0
  2  3  1  0
  3  4  2  0
  4  5  1  0
  5  6  2  0
  6  7  1  0
  7  8  2  0
  8  9  1  0
  7 10  1  0
  4 11  1  0
  2 12  1  0
 12 13  1  0
 13 14  2  0
 14 15  1  0
 15 16  2  0
 16 17  1  0
 17 18  2  0
 18 19  1  0
 15 20  1  0
 20 21  1  0
 21 22  2  0
 22 23  1  0
 23 24  1  0
 23 25  1  0
 25 26  1  0
 26 27  1  0
 27 28  1  0
 28 29  1  0
 29 30  1  0
  8  3  1  0
 18 13  1  0
 24 20  2  0
 30 25  1  0
  1 31  1  0
  1 32  1  0
  1 33  1  0
  2 34  1  1
  5 35  1  0
  6 36  1  0
 14 37  1  0
 16 38  1  0
 19 39  1  0
 19 40  1  0
 21 41  1  0
 24 42  1  0
 25 43  1  0
 26 44  1  0
 26 45  1  0
 27 46  1  0
 27 47  1  0
 28 48  1  0
 29 49  1  0
 29 50  1  0
 30 51  1  0
 30 52  1  0
M  END
>  <energy_abs>  (227) 
39.899775641332816

>  <SMILES>  (227) 
C[C@H](c1c(ccc(c1Cl)F)Cl)Oc2cc(cnc2N)c3cnn(c3)C4CCNCC4

>  <cluster_no>  (227) 
227

>  <fda_drugs_id>  (227) 
KTEIFNKAUNYNJU-GFCCVEGCSA-N

>  <initial_conformation_id>  (227) 
53

>  <minimize_method>  (227) 
MMFF

$$$$

     RDKit          3D

 52 55  0  0  0  0  0  0  0  0999 V2000
    2.0736   -2.0613    0.2166 C   0  0  0  0  0  0  0  0  0  0  0  0
    3.1562   -0.9776    0.2052 C   0  0  2  0  0  0  0  0  0  0  0  0
    4.3839   -1.3960    1.0078 C   0  0  0  0  0  0  0  0  0  0  0  0
    4.3701   -1.4993    2.4203 C   0  0  0  0  0  0  0  0  0  0  0  0
    5.5129   -1.8884    3.1357 C   0  0  0  0  0  0  0  0  0  0  0  0
    6.6957   -2.1858    2.4677 C   0  0  0  0  0  0  0  0  0  0  0  0
    6.7316   -2.0925    1.0846 C   0  0  0  0  0  0  0  0  0  0  0  0
    5.6001   -1.7070    0.3541 C   0  0  0  0  0  0  0  0  0  0  0  0
    5.7761   -1.6350   -1.3699 Cl  0  0  0  0  0  0  0  0  0  0  0  0
    7.8836   -2.3807    0.4592 F   0  0  0  0  0  0  0  0  0  0  0  0
    2.9706   -1.1648    3.3825 Cl  0  0  0  0  0  0  0  0  0  0  0  0
    2.6659    0.2631    0.7488 O   0  0  0  0  0  0  0  0  0  0  0  0
    2.0502    1.0505   -0.1890 C   0  0  0  0  0  0  0  0  0  0  0  0
    0.6564    1.0544   -0.2341 C   0  0  0  0  0  0  0  0  0  0  0  0
    0.0032    1.8921   -1.1368 C   0  0  0  0  0  0  0  0  0  0  0  0
    0.8047    2.6946   -1.9455 C   0  0  0  0  0  0  0  0  0  0  0  0
    2.1614    2.7263   -1.9002 N   0  0  0  0  0  0  0  0  0  0  0  0
    2.7726    1.9278   -1.0092 C   0  0  0  0  0  0  0  0  0  0  0  0
    4.1702    2.0160   -0.9242 N   0  0  0  0  0  0  0  0  0  0  0  0
   -1.4429    1.9522   -1.2175 C   0  0  0  0  0  0  0  0  0  0  0  0
   -2.3040    3.0269   -1.5280 C   0  0  0  0  0  0  0  0  0  0  0  0
   -3.5926    2.6787   -1.5058 N   0  0  0  0  0  0  0  0  0  0  0  0
   -3.5687    1.3762   -1.1706 N   0  0  0  0  0  0  0  0  0  0  0  0
   -2.2992    0.8922   -1.0040 C   0  0  0  0  0  0  0  0  0  0  0  0
   -4.8279    0.6502   -1.0637 C   0  0  0  0  0  0  0  0  0  0  0  0
   -5.0930   -0.1977   -2.3120 C   0  0  0  0  0  0  0  0  0  0  0  0
   -6.4098   -0.9523   -2.1717 C   0  0  0  0  0  0  0  0  0  0  0  0
   -6.4425   -1.7696   -0.9593 N   0  0  0  0  0  0  0  0  0  0  0  0
   -6.2502   -0.9555    0.2415 C   0  0  0  0  0  0  0  0  0  0  0  0
   -4.9232   -0.2053    0.2063 C   0  0  0  0  0  0  0  0  0  0  0  0
    1.5557   -2.1252    1.1802 H   0  0  0  0  0  0  0  0  0  0  0  0
    1.2988   -1.8328   -0.5260 H   0  0  0  0  0  0  0  0  0  0  0  0
    2.4872   -3.0456   -0.0255 H   0  0  0  0  0  0  0  0  0  0  0  0
    3.4304   -0.8168   -0.8406 H   0  0  0  0  0  0  0  0  0  0  0  0
    5.4856   -1.9606    4.2234 H   0  0  0  0  0  0  0  0  0  0  0  0
    7.5891   -2.4869    3.0105 H   0  0  0  0  0  0  0  0  0  0  0  0
    0.0979    0.4230    0.4517 H   0  0  0  0  0  0  0  0  0  0  0  0
    0.3741    3.3667   -2.6840 H   0  0  0  0  0  0  0  0  0  0  0  0
    4.5914    1.1298   -1.1804 H   0  0  0  0  0  0  0  0  0  0  0  0
    4.4182    2.2075    0.0421 H   0  0  0  0  0  0  0  0  0  0  0  0
   -2.0484    4.0514   -1.7650 H   0  0  0  0  0  0  0  0  0  0  0  0
   -2.1163   -0.1455   -0.7641 H   0  0  0  0  0  0  0  0  0  0  0  0
   -5.6120    1.4221   -1.0004 H   0  0  0  0  0  0  0  0  0  0  0  0
   -5.1281    0.4422   -3.2017 H   0  0  0  0  0  0  0  0  0  0  0  0
   -4.2744   -0.9118   -2.4719 H   0  0  0  0  0  0  0  0  0  0  0  0
   -7.2498   -0.2489   -2.1660 H   0  0  0  0  0  0  0  0  0  0  0  0
   -6.5550   -1.6015   -3.0395 H   0  0  0  0  0  0  0  0  0  0  0  0
   -5.7173   -2.4871   -1.0099 H   0  0  0  0  0  0  0  0  0  0  0  0
   -6.2759   -1.6100    1.1182 H   0  0  0  0  0  0  0  0  0  0  0  0
   -7.0844   -0.2515    0.3525 H   0  0  0  0  0  0  0  0  0  0  0  0
   -4.1027   -0.9321    0.2486 H   0  0  0  0  0  0  0  0  0  0  0  0
   -4.8296    0.4267    1.0954 H   0  0  0  0  0  0  0  0  0  0  0  0
  1  2  1  0
  2  3  1  0
  3  4  2  0
  4  5  1  0
  5  6  2  0
  6  7  1  0
  7  8  2  0
  8  9  1  0
  7 10  1  0
  4 11  1  0
  2 12  1  0
 12 13  1  0
 13 14  2  0
 14 15  1  0
 15 16  2  0
 16 17  1  0
 17 18  2  0
 18 19  1  0
 15 20  1  0
 20 21  1  0
 21 22  2  0
 22 23  1  0
 23 24  1  0
 23 25  1  0
 25 26  1  0
 26 27  1  0
 27 28  1  0
 28 29  1  0
 29 30  1  0
  8  3  1  0
 18 13  1  0
 24 20  2  0
 30 25  1  0
  1 31  1  0
  1 32  1  0
  1 33  1  0
  2 34  1  6
  5 35  1  0
  6 36  1  0
 14 37  1  0
 16 38  1  0
 19 39  1  0
 19 40  1  0
 21 41  1  0
 24 42  1  0
 25 43  1  0
 26 44  1  0
 26 45  1  0
 27 46  1  0
 27 47  1  0
 28 48  1  0
 29 49  1  0
 29 50  1  0
 30 51  1  0
 30 52  1  0
M  END
>  <energy_abs>  (228) 
36.4163328718059

>  <SMILES>  (228) 
C[C@H](c1c(ccc(c1Cl)F)Cl)Oc2cc(cnc2N)c3cnn(c3)C4CCNCC4

>  <cluster_no>  (228) 
228

>  <fda_drugs_id>  (228) 
KTEIFNKAUNYNJU-GFCCVEGCSA-N

>  <initial_conformation_id>  (228) 
52

>  <minimize_method>  (228) 
MMFF

$$$$

     RDKit          3D

 52 55  0  0  0  0  0  0  0  0999 V2000
    6.3236    0.4999   -0.6654 C   0  0  0  0  0  0  0  0  0  0  0  0
    4.8952    0.6199   -0.1249 C   0  0  2  0  0  0  0  0  0  0  0  0
    4.3274   -0.7391    0.2945 C   0  0  0  0  0  0  0  0  0  0  0  0
    3.9954   -1.7483   -0.6407 C   0  0  0  0  0  0  0  0  0  0  0  0
    3.4696   -2.9825   -0.2279 C   0  0  0  0  0  0  0  0  0  0  0  0
    3.2668   -3.2471    1.1236 C   0  0  0  0  0  0  0  0  0  0  0  0
    3.5803   -2.2727    2.0606 C   0  0  0  0  0  0  0  0  0  0  0  0
    4.1056   -1.0339    1.6646 C   0  0  0  0  0  0  0  0  0  0  0  0
    4.4679    0.0979    2.9289 Cl  0  0  0  0  0  0  0  0  0  0  0  0
    3.3569   -2.5415    3.3575 F   0  0  0  0  0  0  0  0  0  0  0  0
    4.1794   -1.5512   -2.3516 Cl  0  0  0  0  0  0  0  0  0  0  0  0
    4.0939    1.3054   -1.1140 O   0  0  0  0  0  0  0  0  0  0  0  0
    2.9179    1.7931   -0.5971 C   0  0  0  0  0  0  0  0  0  0  0  0
    1.7438    1.0982   -0.8960 C   0  0  0  0  0  0  0  0  0  0  0  0
    0.5227    1.5434   -0.3894 C   0  0  0  0  0  0  0  0  0  0  0  0
    0.5593    2.7029    0.3831 C   0  0  0  0  0  0  0  0  0  0  0  0
    1.6796    3.4290    0.6452 N   0  0  0  0  0  0  0  0  0  0  0  0
    2.8396    2.9953    0.1246 C   0  0  0  0  0  0  0  0  0  0  0  0
    3.9769    3.7649    0.4070 N   0  0  0  0  0  0  0  0  0  0  0  0
   -0.7046    0.8056   -0.6441 C   0  0  0  0  0  0  0  0  0  0  0  0
   -0.9080   -0.4950   -1.1647 C   0  0  0  0  0  0  0  0  0  0  0  0
   -2.1959   -0.8308   -1.2379 N   0  0  0  0  0  0  0  0  0  0  0  0
   -2.8366    0.2614   -0.7843 N   0  0  0  0  0  0  0  0  0  0  0  0
   -1.9847    1.2666   -0.4149 C   0  0  0  0  0  0  0  0  0  0  0  0
   -4.2960    0.2930   -0.7123 C   0  0  0  0  0  0  0  0  0  0  0  0
   -4.9228    0.4407   -2.1097 C   0  0  0  0  0  0  0  0  0  0  0  0
   -6.3732   -0.0334   -2.0833 C   0  0  0  0  0  0  0  0  0  0  0  0
   -6.4960   -1.4483   -1.7347 N   0  0  0  0  0  0  0  0  0  0  0  0
   -5.4249   -1.9589   -0.8759 C   0  0  0  0  0  0  0  0  0  0  0  0
   -4.8742   -0.9017    0.0681 C   0  0  0  0  0  0  0  0  0  0  0  0
    6.7338    1.4919   -0.8552 H   0  0  0  0  0  0  0  0  0  0  0  0
    6.9757   -0.0111    0.0427 H   0  0  0  0  0  0  0  0  0  0  0  0
    6.3709   -0.0331   -1.6167 H   0  0  0  0  0  0  0  0  0  0  0  0
    4.9895    1.2827    0.7350 H   0  0  0  0  0  0  0  0  0  0  0  0
    3.2144   -3.7464   -0.9636 H   0  0  0  0  0  0  0  0  0  0  0  0
    2.8600   -4.2002    1.4529 H   0  0  0  0  0  0  0  0  0  0  0  0
    1.7991    0.2149   -1.5266 H   0  0  0  0  0  0  0  0  0  0  0  0
   -0.3353    3.1125    0.8426 H   0  0  0  0  0  0  0  0  0  0  0  0
    4.5471    3.8466   -0.4273 H   0  0  0  0  0  0  0  0  0  0  0  0
    4.5163    3.3266    1.1342 H   0  0  0  0  0  0  0  0  0  0  0  0
   -0.1698   -1.2190   -1.4865 H   0  0  0  0  0  0  0  0  0  0  0  0
   -2.3664    2.2035   -0.0355 H   0  0  0  0  0  0  0  0  0  0  0  0
   -4.5375    1.1973   -0.1356 H   0  0  0  0  0  0  0  0  0  0  0  0
   -4.3640   -0.1372   -2.8583 H   0  0  0  0  0  0  0  0  0  0  0  0
   -4.8719    1.4882   -2.4326 H   0  0  0  0  0  0  0  0  0  0  0  0
   -6.8438    0.1412   -3.0586 H   0  0  0  0  0  0  0  0  0  0  0  0
   -6.9404    0.5593   -1.3463 H   0  0  0  0  0  0  0  0  0  0  0  0
   -7.3946   -1.6140   -1.2991 H   0  0  0  0  0  0  0  0  0  0  0  0
   -4.6247   -2.3495   -1.5064 H   0  0  0  0  0  0  0  0  0  0  0  0
   -5.8070   -2.8090   -0.2994 H   0  0  0  0  0  0  0  0  0  0  0  0
   -5.6891   -0.5473    0.7117 H   0  0  0  0  0  0  0  0  0  0  0  0
   -4.1304   -1.3456    0.7361 H   0  0  0  0  0  0  0  0  0  0  0  0
  1  2  1  0
  2  3  1  0
  3  4  2  0
  4  5  1  0
  5  6  2  0
  6  7  1  0
  7  8  2  0
  8  9  1  0
  7 10  1  0
  4 11  1  0
  2 12  1  0
 12 13  1  0
 13 14  2  0
 14 15  1  0
 15 16  2  0
 16 17  1  0
 17 18  2  0
 18 19  1  0
 15 20  1  0
 20 21  1  0
 21 22  2  0
 22 23  1  0
 23 24  1  0
 23 25  1  0
 25 26  1  0
 26 27  1  0
 27 28  1  0
 28 29  1  0
 29 30  1  0
  8  3  1  0
 18 13  1  0
 24 20  2  0
 30 25  1  0
  1 31  1  0
  1 32  1  0
  1 33  1  0
  2 34  1  1
  5 35  1  0
  6 36  1  0
 14 37  1  0
 16 38  1  0
 19 39  1  0
 19 40  1  0
 21 41  1  0
 24 42  1  0
 25 43  1  0
 26 44  1  0
 26 45  1  0
 27 46  1  0
 27 47  1  0
 28 48  1  0
 29 49  1  0
 29 50  1  0
 30 51  1  0
 30 52  1  0
M  END
>  <energy_abs>  (229) 
41.514802006283645

>  <SMILES>  (229) 
C[C@H](c1c(ccc(c1Cl)F)Cl)Oc2cc(cnc2N)c3cnn(c3)C4CCNCC4

>  <cluster_no>  (229) 
229

>  <fda_drugs_id>  (229) 
KTEIFNKAUNYNJU-GFCCVEGCSA-N

>  <initial_conformation_id>  (229) 
50

>  <minimize_method>  (229) 
MMFF

$$$$

     RDKit          3D

 52 55  0  0  0  0  0  0  0  0999 V2000
    3.4682    0.1528    2.5361 C   0  0  0  0  0  0  0  0  0  0  0  0
    3.4128   -0.4284    1.1184 C   0  0  2  0  0  0  0  0  0  0  0  0
    4.5868   -1.3786    0.8834 C   0  0  0  0  0  0  0  0  0  0  0  0
    4.3827   -2.7827    0.8708 C   0  0  0  0  0  0  0  0  0  0  0  0
    5.4498   -3.6751    0.6754 C   0  0  0  0  0  0  0  0  0  0  0  0
    6.7492   -3.1927    0.5130 C   0  0  0  0  0  0  0  0  0  0  0  0
    6.9742   -1.8218    0.5344 C   0  0  0  0  0  0  0  0  0  0  0  0
    5.9169   -0.9151    0.7104 C   0  0  0  0  0  0  0  0  0  0  0  0
    6.3427    0.7679    0.7040 Cl  0  0  0  0  0  0  0  0  0  0  0  0
    8.2419   -1.3838    0.3731 F   0  0  0  0  0  0  0  0  0  0  0  0
    2.8262   -3.5104    1.1194 Cl  0  0  0  0  0  0  0  0  0  0  0  0
    3.4279    0.5783    0.0897 O   0  0  0  0  0  0  0  0  0  0  0  0
    2.2724    1.3182    0.0405 C   0  0  0  0  0  0  0  0  0  0  0  0
    1.0992    0.7757   -0.4896 C   0  0  0  0  0  0  0  0  0  0  0  0
   -0.0617    1.5610   -0.5244 C   0  0  0  0  0  0  0  0  0  0  0  0
    0.0506    2.8707   -0.0451 C   0  0  0  0  0  0  0  0  0  0  0  0
    1.1893    3.4300    0.4444 N   0  0  0  0  0  0  0  0  0  0  0  0
    2.2858    2.6555    0.4693 C   0  0  0  0  0  0  0  0  0  0  0  0
    3.4343    3.2253    1.0284 N   0  0  0  0  0  0  0  0  0  0  0  0
   -1.3197    1.0115   -1.0104 C   0  0  0  0  0  0  0  0  0  0  0  0
   -1.5996   -0.1613   -1.7574 C   0  0  0  0  0  0  0  0  0  0  0  0
   -2.9055   -0.3420   -1.9758 N   0  0  0  0  0  0  0  0  0  0  0  0
   -3.4775    0.7118   -1.3685 N   0  0  0  0  0  0  0  0  0  0  0  0
   -2.5681    1.5596   -0.7960 C   0  0  0  0  0  0  0  0  0  0  0  0
   -4.9307    0.8527   -1.3260 C   0  0  0  0  0  0  0  0  0  0  0  0
   -5.5739    0.8085   -2.7224 C   0  0  0  0  0  0  0  0  0  0  0  0
   -6.3558   -0.4870   -2.9304 C   0  0  0  0  0  0  0  0  0  0  0  0
   -7.4292   -0.6438   -1.9441 N   0  0  0  0  0  0  0  0  0  0  0  0
   -7.0559   -0.2604   -0.5781 C   0  0  0  0  0  0  0  0  0  0  0  0
   -5.5485   -0.1638   -0.3539 C   0  0  0  0  0  0  0  0  0  0  0  0
    2.5321    0.6734    2.7737 H   0  0  0  0  0  0  0  0  0  0  0  0
    3.6128   -0.6354    3.2798 H   0  0  0  0  0  0  0  0  0  0  0  0
    4.2632    0.8866    2.6585 H   0  0  0  0  0  0  0  0  0  0  0  0
    2.4728   -0.9780    1.0232 H   0  0  0  0  0  0  0  0  0  0  0  0
    5.2746   -4.7521    0.6554 H   0  0  0  0  0  0  0  0  0  0  0  0
    7.5840   -3.8760    0.3705 H   0  0  0  0  0  0  0  0  0  0  0  0
    1.0986   -0.2576   -0.8337 H   0  0  0  0  0  0  0  0  0  0  0  0
   -0.8004    3.5499   -0.0291 H   0  0  0  0  0  0  0  0  0  0  0  0
    4.2369    3.0552    0.4369 H   0  0  0  0  0  0  0  0  0  0  0  0
    3.2520    4.2124    1.1954 H   0  0  0  0  0  0  0  0  0  0  0  0
   -0.9067   -0.8944   -2.1524 H   0  0  0  0  0  0  0  0  0  0  0  0
   -2.8944    2.4531   -0.2797 H   0  0  0  0  0  0  0  0  0  0  0  0
   -5.1118    1.8597   -0.9232 H   0  0  0  0  0  0  0  0  0  0  0  0
   -6.2722    1.6575   -2.8184 H   0  0  0  0  0  0  0  0  0  0  0  0
   -4.8285    0.9320   -3.5212 H   0  0  0  0  0  0  0  0  0  0  0  0
   -6.7967   -0.4963   -3.9342 H   0  0  0  0  0  0  0  0  0  0  0  0
   -5.6861   -1.3528   -2.8815 H   0  0  0  0  0  0  0  0  0  0  0  0
   -8.2634   -0.1083   -2.2332 H   0  0  0  0  0  0  0  0  0  0  0  0
   -7.5191    0.7084   -0.3332 H   0  0  0  0  0  0  0  0  0  0  0  0
   -7.4826   -0.9905    0.1091 H   0  0  0  0  0  0  0  0  0  0  0  0
   -5.0969   -1.1583   -0.4788 H   0  0  0  0  0  0  0  0  0  0  0  0
   -5.3418    0.1403    0.6801 H   0  0  0  0  0  0  0  0  0  0  0  0
  1  2  1  0
  2  3  1  0
  3  4  2  0
  4  5  1  0
  5  6  2  0
  6  7  1  0
  7  8  2  0
  8  9  1  0
  7 10  1  0
  4 11  1  0
  2 12  1  0
 12 13  1  0
 13 14  2  0
 14 15  1  0
 15 16  2  0
 16 17  1  0
 17 18  2  0
 18 19  1  0
 15 20  1  0
 20 21  1  0
 21 22  2  0
 22 23  1  0
 23 24  1  0
 23 25  1  0
 25 26  1  0
 26 27  1  0
 27 28  1  0
 28 29  1  0
 29 30  1  0
  8  3  1  0
 18 13  1  0
 24 20  2  0
 30 25  1  0
  1 31  1  0
  1 32  1  0
  1 33  1  0
  2 34  1  1
  5 35  1  0
  6 36  1  0
 14 37  1  0
 16 38  1  0
 19 39  1  0
 19 40  1  0
 21 41  1  0
 24 42  1  0
 25 43  1  0
 26 44  1  0
 26 45  1  0
 27 46  1  0
 27 47  1  0
 28 48  1  0
 29 49  1  0
 29 50  1  0
 30 51  1  0
 30 52  1  0
M  END
>  <energy_abs>  (230) 
31.160879468773327

>  <SMILES>  (230) 
C[C@H](c1c(ccc(c1Cl)F)Cl)Oc2cc(cnc2N)c3cnn(c3)C4CCNCC4

>  <cluster_no>  (230) 
230

>  <fda_drugs_id>  (230) 
KTEIFNKAUNYNJU-GFCCVEGCSA-N

>  <initial_conformation_id>  (230) 
49

>  <minimize_method>  (230) 
MMFF

$$$$

     RDKit          3D

 52 55  0  0  0  0  0  0  0  0999 V2000
    3.1430   -2.5483   -0.5001 C   0  0  0  0  0  0  0  0  0  0  0  0
    3.5773   -1.2060    0.0889 C   0  0  2  0  0  0  0  0  0  0  0  0
    5.0080   -1.2675    0.6275 C   0  0  0  0  0  0  0  0  0  0  0  0
    5.3371   -1.8822    1.8596 C   0  0  0  0  0  0  0  0  0  0  0  0
    6.6567   -1.9010    2.3390 C   0  0  0  0  0  0  0  0  0  0  0  0
    7.6838   -1.3277    1.5986 C   0  0  0  0  0  0  0  0  0  0  0  0
    7.3901   -0.7465    0.3729 C   0  0  0  0  0  0  0  0  0  0  0  0
    6.0774   -0.7122   -0.1177 C   0  0  0  0  0  0  0  0  0  0  0  0
    5.8408    0.0318   -1.6672 Cl  0  0  0  0  0  0  0  0  0  0  0  0
    8.3994   -0.2089   -0.3294 F   0  0  0  0  0  0  0  0  0  0  0  0
    4.1737   -2.6645    2.8736 Cl  0  0  0  0  0  0  0  0  0  0  0  0
    2.6696   -0.8241    1.1422 O   0  0  0  0  0  0  0  0  0  0  0  0
    1.8322    0.1950    0.7663 C   0  0  0  0  0  0  0  0  0  0  0  0
    0.5578   -0.1249    0.2961 C   0  0  0  0  0  0  0  0  0  0  0  0
   -0.3250    0.8981   -0.0584 C   0  0  0  0  0  0  0  0  0  0  0  0
    0.1480    2.2012    0.0945 C   0  0  0  0  0  0  0  0  0  0  0  0
    1.3762    2.5369    0.5729 N   0  0  0  0  0  0  0  0  0  0  0  0
    2.1958    1.5371    0.9319 C   0  0  0  0  0  0  0  0  0  0  0  0
    3.4595    1.8886    1.4297 N   0  0  0  0  0  0  0  0  0  0  0  0
   -1.6608    0.6035   -0.5556 C   0  0  0  0  0  0  0  0  0  0  0  0
   -2.3017   -0.6349   -0.8096 C   0  0  0  0  0  0  0  0  0  0  0  0
   -3.5532   -0.4929   -1.2565 N   0  0  0  0  0  0  0  0  0  0  0  0
   -3.7314    0.8412   -1.2866 N   0  0  0  0  0  0  0  0  0  0  0  0
   -2.6249    1.5394   -0.8828 C   0  0  0  0  0  0  0  0  0  0  0  0
   -5.0190    1.4097   -1.6779 C   0  0  0  0  0  0  0  0  0  0  0  0
   -6.1642    0.9340   -0.7656 C   0  0  0  0  0  0  0  0  0  0  0  0
   -7.0751   -0.0510   -1.4883 C   0  0  0  0  0  0  0  0  0  0  0  0
   -7.6819    0.5275   -2.6912 N   0  0  0  0  0  0  0  0  0  0  0  0
   -6.7926    1.4072   -3.4513 C   0  0  0  0  0  0  0  0  0  0  0  0
   -5.3120    1.1739   -3.1669 C   0  0  0  0  0  0  0  0  0  0  0  0
    3.8310   -2.8888   -1.2819 H   0  0  0  0  0  0  0  0  0  0  0  0
    2.1402   -2.4662   -0.9391 H   0  0  0  0  0  0  0  0  0  0  0  0
    3.0771   -3.3203    0.2671 H   0  0  0  0  0  0  0  0  0  0  0  0
    3.5186   -0.4577   -0.7124 H   0  0  0  0  0  0  0  0  0  0  0  0
    6.8912   -2.3639    3.2978 H   0  0  0  0  0  0  0  0  0  0  0  0
    8.7073   -1.3348    1.9620 H   0  0  0  0  0  0  0  0  0  0  0  0
    0.2719   -1.1715    0.2246 H   0  0  0  0  0  0  0  0  0  0  0  0
   -0.4585    3.0650   -0.1625 H   0  0  0  0  0  0  0  0  0  0  0  0
    3.6249    1.3513    2.2779 H   0  0  0  0  0  0  0  0  0  0  0  0
    4.1688    1.6307    0.7532 H   0  0  0  0  0  0  0  0  0  0  0  0
   -1.9108   -1.6388   -0.6891 H   0  0  0  0  0  0  0  0  0  0  0  0
   -2.6358    2.6217   -0.8576 H   0  0  0  0  0  0  0  0  0  0  0  0
   -4.9153    2.4933   -1.5219 H   0  0  0  0  0  0  0  0  0  0  0  0
   -5.7869    0.4862    0.1638 H   0  0  0  0  0  0  0  0  0  0  0  0
   -6.7609    1.8046   -0.4629 H   0  0  0  0  0  0  0  0  0  0  0  0
   -7.8708   -0.3766   -0.8135 H   0  0  0  0  0  0  0  0  0  0  0  0
   -6.5170   -0.9544   -1.7610 H   0  0  0  0  0  0  0  0  0  0  0  0
   -8.5336    1.0380   -2.4461 H   0  0  0  0  0  0  0  0  0  0  0  0
   -6.9912    1.2730   -4.5228 H   0  0  0  0  0  0  0  0  0  0  0  0
   -7.0380    2.4496   -3.2166 H   0  0  0  0  0  0  0  0  0  0  0  0
   -5.0367    0.1553   -3.4743 H   0  0  0  0  0  0  0  0  0  0  0  0
   -4.6987    1.8546   -3.7745 H   0  0  0  0  0  0  0  0  0  0  0  0
  1  2  1  0
  2  3  1  0
  3  4  2  0
  4  5  1  0
  5  6  2  0
  6  7  1  0
  7  8  2  0
  8  9  1  0
  7 10  1  0
  4 11  1  0
  2 12  1  0
 12 13  1  0
 13 14  2  0
 14 15  1  0
 15 16  2  0
 16 17  1  0
 17 18  2  0
 18 19  1  0
 15 20  1  0
 20 21  1  0
 21 22  2  0
 22 23  1  0
 23 24  1  0
 23 25  1  0
 25 26  1  0
 26 27  1  0
 27 28  1  0
 28 29  1  0
 29 30  1  0
  8  3  1  0
 18 13  1  0
 24 20  2  0
 30 25  1  0
  1 31  1  0
  1 32  1  0
  1 33  1  0
  2 34  1  6
  5 35  1  0
  6 36  1  0
 14 37  1  0
 16 38  1  0
 19 39  1  0
 19 40  1  0
 21 41  1  0
 24 42  1  0
 25 43  1  0
 26 44  1  0
 26 45  1  0
 27 46  1  0
 27 47  1  0
 28 48  1  0
 29 49  1  0
 29 50  1  0
 30 51  1  0
 30 52  1  0
M  END
>  <energy_abs>  (231) 
41.11884892324258

>  <SMILES>  (231) 
C[C@H](c1c(ccc(c1Cl)F)Cl)Oc2cc(cnc2N)c3cnn(c3)C4CCNCC4

>  <cluster_no>  (231) 
231

>  <fda_drugs_id>  (231) 
KTEIFNKAUNYNJU-GFCCVEGCSA-N

>  <initial_conformation_id>  (231) 
48

>  <minimize_method>  (231) 
MMFF

$$$$

     RDKit          3D

 52 55  0  0  0  0  0  0  0  0999 V2000
    1.9667   -1.5339    1.5806 C   0  0  0  0  0  0  0  0  0  0  0  0
    2.7967   -0.8474    0.4926 C   0  0  2  0  0  0  0  0  0  0  0  0
    4.1542   -1.5348    0.3415 C   0  0  0  0  0  0  0  0  0  0  0  0
    4.3743   -2.4522   -0.7137 C   0  0  0  0  0  0  0  0  0  0  0  0
    5.6124   -3.0871   -0.8895 C   0  0  0  0  0  0  0  0  0  0  0  0
    6.6589   -2.8370   -0.0114 C   0  0  0  0  0  0  0  0  0  0  0  0
    6.4586   -1.9641    1.0476 C   0  0  0  0  0  0  0  0  0  0  0  0
    5.2272   -1.3207    1.2394 C   0  0  0  0  0  0  0  0  0  0  0  0
    5.1020   -0.2973    2.6349 Cl  0  0  0  0  0  0  0  0  0  0  0  0
    7.4778   -1.7555    1.8951 F   0  0  0  0  0  0  0  0  0  0  0  0
    3.1372   -2.8877   -1.8460 Cl  0  0  0  0  0  0  0  0  0  0  0  0
    3.0046    0.5380    0.7882 O   0  0  0  0  0  0  0  0  0  0  0  0
    2.0237    1.4614    0.5465 C   0  0  0  0  0  0  0  0  0  0  0  0
    0.7903    1.2159   -0.0572 C   0  0  0  0  0  0  0  0  0  0  0  0
   -0.1153    2.2659   -0.2475 C   0  0  0  0  0  0  0  0  0  0  0  0
    0.2763    3.5293    0.1818 C   0  0  0  0  0  0  0  0  0  0  0  0
    1.4634    3.8030    0.7700 N   0  0  0  0  0  0  0  0  0  0  0  0
    2.3160    2.7791    0.9470 C   0  0  0  0  0  0  0  0  0  0  0  0
    3.5515    3.0707    1.5584 N   0  0  0  0  0  0  0  0  0  0  0  0
   -1.4050    2.0589   -0.8773 C   0  0  0  0  0  0  0  0  0  0  0  0
   -2.2055    2.9294   -1.6523 C   0  0  0  0  0  0  0  0  0  0  0  0
   -3.3488    2.3652   -2.0472 N   0  0  0  0  0  0  0  0  0  0  0  0
   -3.2929    1.1254   -1.5263 N   0  0  0  0  0  0  0  0  0  0  0  0
   -2.1477    0.8979   -0.8101 C   0  0  0  0  0  0  0  0  0  0  0  0
   -4.4061    0.2049   -1.7321 C   0  0  0  0  0  0  0  0  0  0  0  0
   -5.1008   -0.1424   -0.4128 C   0  0  0  0  0  0  0  0  0  0  0  0
   -6.2992   -1.0592   -0.6594 C   0  0  0  0  0  0  0  0  0  0  0  0
   -6.1022   -2.0221   -1.7434 N   0  0  0  0  0  0  0  0  0  0  0  0
   -4.7012   -2.3120   -2.0051 C   0  0  0  0  0  0  0  0  0  0  0  0
   -3.9826   -1.0590   -2.5035 C   0  0  0  0  0  0  0  0  0  0  0  0
    1.8445   -2.6026    1.3723 H   0  0  0  0  0  0  0  0  0  0  0  0
    2.4229   -1.4305    2.5703 H   0  0  0  0  0  0  0  0  0  0  0  0
    0.9696   -1.0880    1.6583 H   0  0  0  0  0  0  0  0  0  0  0  0
    2.2724   -0.9093   -0.4624 H   0  0  0  0  0  0  0  0  0  0  0  0
    5.7630   -3.7839   -1.7126 H   0  0  0  0  0  0  0  0  0  0  0  0
    7.6221   -3.3226   -0.1358 H   0  0  0  0  0  0  0  0  0  0  0  0
    0.5167    0.2261   -0.4003 H   0  0  0  0  0  0  0  0  0  0  0  0
   -0.3715    4.3953    0.0759 H   0  0  0  0  0  0  0  0  0  0  0  0
    4.2859    2.7794    0.9186 H   0  0  0  0  0  0  0  0  0  0  0  0
    3.6429    2.4623    2.3689 H   0  0  0  0  0  0  0  0  0  0  0  0
   -2.0027    3.9503   -1.9514 H   0  0  0  0  0  0  0  0  0  0  0  0
   -1.9749   -0.0484   -0.3170 H   0  0  0  0  0  0  0  0  0  0  0  0
   -5.1310    0.7478   -2.3558 H   0  0  0  0  0  0  0  0  0  0  0  0
   -4.3952   -0.6417    0.2646 H   0  0  0  0  0  0  0  0  0  0  0  0
   -5.4316    0.7673    0.1035 H   0  0  0  0  0  0  0  0  0  0  0  0
   -6.5318   -1.5917    0.2706 H   0  0  0  0  0  0  0  0  0  0  0  0
   -7.1794   -0.4542   -0.9039 H   0  0  0  0  0  0  0  0  0  0  0  0
   -6.6188   -2.8793   -1.5441 H   0  0  0  0  0  0  0  0  0  0  0  0
   -4.2158   -2.7078   -1.1045 H   0  0  0  0  0  0  0  0  0  0  0  0
   -4.6260   -3.0937   -2.7695 H   0  0  0  0  0  0  0  0  0  0  0  0
   -4.2057   -0.9057   -3.5680 H   0  0  0  0  0  0  0  0  0  0  0  0
   -2.9014   -1.2340   -2.4487 H   0  0  0  0  0  0  0  0  0  0  0  0
  1  2  1  0
  2  3  1  0
  3  4  2  0
  4  5  1  0
  5  6  2  0
  6  7  1  0
  7  8  2  0
  8  9  1  0
  7 10  1  0
  4 11  1  0
  2 12  1  0
 12 13  1  0
 13 14  2  0
 14 15  1  0
 15 16  2  0
 16 17  1  0
 17 18  2  0
 18 19  1  0
 15 20  1  0
 20 21  1  0
 21 22  2  0
 22 23  1  0
 23 24  1  0
 23 25  1  0
 25 26  1  0
 26 27  1  0
 27 28  1  0
 28 29  1  0
 29 30  1  0
  8  3  1  0
 18 13  1  0
 24 20  2  0
 30 25  1  0
  1 31  1  0
  1 32  1  0
  1 33  1  0
  2 34  1  6
  5 35  1  0
  6 36  1  0
 14 37  1  0
 16 38  1  0
 19 39  1  0
 19 40  1  0
 21 41  1  0
 24 42  1  0
 25 43  1  0
 26 44  1  0
 26 45  1  0
 27 46  1  0
 27 47  1  0
 28 48  1  0
 29 49  1  0
 29 50  1  0
 30 51  1  0
 30 52  1  0
M  END
>  <energy_abs>  (232) 
39.67773292279767

>  <SMILES>  (232) 
C[C@H](c1c(ccc(c1Cl)F)Cl)Oc2cc(cnc2N)c3cnn(c3)C4CCNCC4

>  <cluster_no>  (232) 
232

>  <fda_drugs_id>  (232) 
KTEIFNKAUNYNJU-GFCCVEGCSA-N

>  <initial_conformation_id>  (232) 
47

>  <minimize_method>  (232) 
MMFF

$$$$

     RDKit          3D

 52 55  0  0  0  0  0  0  0  0999 V2000
    5.5739    0.7888    2.3060 C   0  0  0  0  0  0  0  0  0  0  0  0
    4.1696    0.4633    1.7869 C   0  0  2  0  0  0  0  0  0  0  0  0
    4.1892   -0.7661    0.8829 C   0  0  0  0  0  0  0  0  0  0  0  0
    3.7274   -2.0132    1.3658 C   0  0  0  0  0  0  0  0  0  0  0  0
    3.7093   -3.1548    0.5528 C   0  0  0  0  0  0  0  0  0  0  0  0
    4.1599   -3.0873   -0.7583 C   0  0  0  0  0  0  0  0  0  0  0  0
    4.6414   -1.8810   -1.2457 C   0  0  0  0  0  0  0  0  0  0  0  0
    4.6688   -0.7305   -0.4460 C   0  0  0  0  0  0  0  0  0  0  0  0
    5.3047    0.7045   -1.1785 Cl  0  0  0  0  0  0  0  0  0  0  0  0
    5.0768   -1.8408   -2.5139 F   0  0  0  0  0  0  0  0  0  0  0  0
    3.1618   -2.2341    2.9875 Cl  0  0  0  0  0  0  0  0  0  0  0  0
    3.6613    1.6450    1.1311 O   0  0  0  0  0  0  0  0  0  0  0  0
    2.2915    1.7150    1.1814 C   0  0  0  0  0  0  0  0  0  0  0  0
    1.5494    1.2014    0.1181 C   0  0  0  0  0  0  0  0  0  0  0  0
    0.1579    1.2947    0.1342 C   0  0  0  0  0  0  0  0  0  0  0  0
   -0.4071    1.9303    1.2370 C   0  0  0  0  0  0  0  0  0  0  0  0
    0.2951    2.4668    2.2693 N   0  0  0  0  0  0  0  0  0  0  0  0
    1.6335    2.3717    2.2275 C   0  0  0  0  0  0  0  0  0  0  0  0
    2.3555    3.0053    3.2503 N   0  0  0  0  0  0  0  0  0  0  0  0
   -0.6374    0.7597   -0.9590 C   0  0  0  0  0  0  0  0  0  0  0  0
   -0.2531    0.3017   -2.2425 C   0  0  0  0  0  0  0  0  0  0  0  0
   -1.2823   -0.1332   -2.9696 N   0  0  0  0  0  0  0  0  0  0  0  0
   -2.3465    0.0598   -2.1682 N   0  0  0  0  0  0  0  0  0  0  0  0
   -2.0053    0.5787   -0.9472 C   0  0  0  0  0  0  0  0  0  0  0  0
   -3.6749   -0.3206   -2.6443 C   0  0  0  0  0  0  0  0  0  0  0  0
   -4.2066   -1.5768   -1.9331 C   0  0  0  0  0  0  0  0  0  0  0  0
   -5.1738   -1.2217   -0.8109 C   0  0  0  0  0  0  0  0  0  0  0  0
   -6.3014   -0.3948   -1.2395 N   0  0  0  0  0  0  0  0  0  0  0  0
   -6.0913    0.3465   -2.4810 C   0  0  0  0  0  0  0  0  0  0  0  0
   -4.6624    0.8543   -2.6041 C   0  0  0  0  0  0  0  0  0  0  0  0
    5.5374    1.6584    2.9721 H   0  0  0  0  0  0  0  0  0  0  0  0
    6.2623    1.0529    1.4961 H   0  0  0  0  0  0  0  0  0  0  0  0
    6.0024   -0.0537    2.8579 H   0  0  0  0  0  0  0  0  0  0  0  0
    3.5559    0.2867    2.6766 H   0  0  0  0  0  0  0  0  0  0  0  0
    3.3365   -4.1013    0.9412 H   0  0  0  0  0  0  0  0  0  0  0  0
    4.1420   -3.9626   -1.4019 H   0  0  0  0  0  0  0  0  0  0  0  0
    2.0684    0.7438   -0.7160 H   0  0  0  0  0  0  0  0  0  0  0  0
   -1.4820    2.0549    1.3360 H   0  0  0  0  0  0  0  0  0  0  0  0
    2.9437    3.7140    2.8187 H   0  0  0  0  0  0  0  0  0  0  0  0
    2.9718    2.3386    3.6975 H   0  0  0  0  0  0  0  0  0  0  0  0
    0.7356    0.2675   -2.6824 H   0  0  0  0  0  0  0  0  0  0  0  0
   -2.7578    0.7705   -0.1948 H   0  0  0  0  0  0  0  0  0  0  0  0
   -3.5349   -0.5949   -3.7004 H   0  0  0  0  0  0  0  0  0  0  0  0
   -4.7394   -2.2002   -2.6664 H   0  0  0  0  0  0  0  0  0  0  0  0
   -3.3878   -2.1957   -1.5442 H   0  0  0  0  0  0  0  0  0  0  0  0
   -5.5578   -2.1414   -0.3544 H   0  0  0  0  0  0  0  0  0  0  0  0
   -4.6398   -0.6903   -0.0152 H   0  0  0  0  0  0  0  0  0  0  0  0
   -7.1484   -0.9597   -1.3217 H   0  0  0  0  0  0  0  0  0  0  0  0
   -6.7867    1.1931   -2.5031 H   0  0  0  0  0  0  0  0  0  0  0  0
   -6.3366   -0.2899   -3.3414 H   0  0  0  0  0  0  0  0  0  0  0  0
   -4.4529    1.5364   -1.7725 H   0  0  0  0  0  0  0  0  0  0  0  0
   -4.5558    1.4521   -3.5167 H   0  0  0  0  0  0  0  0  0  0  0  0
  1  2  1  0
  2  3  1  0
  3  4  2  0
  4  5  1  0
  5  6  2  0
  6  7  1  0
  7  8  2  0
  8  9  1  0
  7 10  1  0
  4 11  1  0
  2 12  1  0
 12 13  1  0
 13 14  2  0
 14 15  1  0
 15 16  2  0
 16 17  1  0
 17 18  2  0
 18 19  1  0
 15 20  1  0
 20 21  1  0
 21 22  2  0
 22 23  1  0
 23 24  1  0
 23 25  1  0
 25 26  1  0
 26 27  1  0
 27 28  1  0
 28 29  1  0
 29 30  1  0
  8  3  1  0
 18 13  1  0
 24 20  2  0
 30 25  1  0
  1 31  1  0
  1 32  1  0
  1 33  1  0
  2 34  1  1
  5 35  1  0
  6 36  1  0
 14 37  1  0
 16 38  1  0
 19 39  1  0
 19 40  1  0
 21 41  1  0
 24 42  1  0
 25 43  1  0
 26 44  1  0
 26 45  1  0
 27 46  1  0
 27 47  1  0
 28 48  1  0
 29 49  1  0
 29 50  1  0
 30 51  1  0
 30 52  1  0
M  END
>  <energy_abs>  (233) 
40.29752664702388

>  <SMILES>  (233) 
C[C@H](c1c(ccc(c1Cl)F)Cl)Oc2cc(cnc2N)c3cnn(c3)C4CCNCC4

>  <cluster_no>  (233) 
233

>  <fda_drugs_id>  (233) 
KTEIFNKAUNYNJU-GFCCVEGCSA-N

>  <initial_conformation_id>  (233) 
46

>  <minimize_method>  (233) 
MMFF

$$$$

     RDKit          3D

 52 55  0  0  0  0  0  0  0  0999 V2000
    2.3788   -1.5167    1.7854 C   0  0  0  0  0  0  0  0  0  0  0  0
    3.0784   -0.8646    0.5900 C   0  0  2  0  0  0  0  0  0  0  0  0
    4.4792   -1.4501    0.4071 C   0  0  0  0  0  0  0  0  0  0  0  0
    4.7157   -2.4367   -0.5801 C   0  0  0  0  0  0  0  0  0  0  0  0
    5.9909   -2.9847   -0.7812 C   0  0  0  0  0  0  0  0  0  0  0  0
    7.0610   -2.5753    0.0040 C   0  0  0  0  0  0  0  0  0  0  0  0
    6.8488   -1.6290    0.9956 C   0  0  0  0  0  0  0  0  0  0  0  0
    5.5804   -1.0707    1.2115 C   0  0  0  0  0  0  0  0  0  0  0  0
    5.4507    0.0641    2.5167 Cl  0  0  0  0  0  0  0  0  0  0  0  0
    7.8939   -1.2647    1.7541 F   0  0  0  0  0  0  0  0  0  0  0  0
    3.4573   -3.0665   -1.5914 Cl  0  0  0  0  0  0  0  0  0  0  0  0
    3.1823    0.5538    0.7517 O   0  0  0  0  0  0  0  0  0  0  0  0
    2.1036    1.3662    0.5265 C   0  0  0  0  0  0  0  0  0  0  0  0
    0.8675    0.9727    0.0127 C   0  0  0  0  0  0  0  0  0  0  0  0
   -0.1453    1.9206   -0.1739 C   0  0  0  0  0  0  0  0  0  0  0  0
    0.1463    3.2370    0.1680 C   0  0  0  0  0  0  0  0  0  0  0  0
    1.3332    3.6534    0.6658 N   0  0  0  0  0  0  0  0  0  0  0  0
    2.2898    2.7257    0.8404 C   0  0  0  0  0  0  0  0  0  0  0  0
    3.5257    3.1664    1.3533 N   0  0  0  0  0  0  0  0  0  0  0  0
   -1.4432    1.5614   -0.7134 C   0  0  0  0  0  0  0  0  0  0  0  0
   -2.3761    2.3220   -1.4566 C   0  0  0  0  0  0  0  0  0  0  0  0
   -3.4768    1.6326   -1.7636 N   0  0  0  0  0  0  0  0  0  0  0  0
   -3.2638    0.4249   -1.2092 N   0  0  0  0  0  0  0  0  0  0  0  0
   -2.0566    0.3332   -0.5703 C   0  0  0  0  0  0  0  0  0  0  0  0
   -4.2706   -0.6279   -1.3152 C   0  0  0  0  0  0  0  0  0  0  0  0
   -5.4474   -0.3605   -0.3658 C   0  0  0  0  0  0  0  0  0  0  0  0
   -6.6822   -1.1271   -0.8219 C   0  0  0  0  0  0  0  0  0  0  0  0
   -7.1330   -0.7356   -2.1557 N   0  0  0  0  0  0  0  0  0  0  0  0
   -6.0786   -0.2220   -3.0311 C   0  0  0  0  0  0  0  0  0  0  0  0
   -4.7248   -0.8692   -2.7648 C   0  0  0  0  0  0  0  0  0  0  0  0
    2.8830   -1.2873    2.7294 H   0  0  0  0  0  0  0  0  0  0  0  0
    2.3383   -2.6056    1.6766 H   0  0  0  0  0  0  0  0  0  0  0  0
    1.3534   -1.1494    1.8924 H   0  0  0  0  0  0  0  0  0  0  0  0
    2.5048   -1.0546   -0.3185 H   0  0  0  0  0  0  0  0  0  0  0  0
    6.1526   -3.7383   -1.5500 H   0  0  0  0  0  0  0  0  0  0  0  0
    8.0531   -2.9923   -0.1410 H   0  0  0  0  0  0  0  0  0  0  0  0
    0.6735   -0.0561   -0.2637 H   0  0  0  0  0  0  0  0  0  0  0  0
   -0.5874    4.0315    0.0610 H   0  0  0  0  0  0  0  0  0  0  0  0
    4.2437    2.9172    0.6784 H   0  0  0  0  0  0  0  0  0  0  0  0
    3.7300    2.6118    2.1818 H   0  0  0  0  0  0  0  0  0  0  0  0
   -2.2985    3.3483   -1.7937 H   0  0  0  0  0  0  0  0  0  0  0  0
   -1.7577   -0.5755   -0.0670 H   0  0  0  0  0  0  0  0  0  0  0  0
   -3.7635   -1.5454   -0.9853 H   0  0  0  0  0  0  0  0  0  0  0  0
   -5.6833    0.7108   -0.3148 H   0  0  0  0  0  0  0  0  0  0  0  0
   -5.1740   -0.6599    0.6535 H   0  0  0  0  0  0  0  0  0  0  0  0
   -6.4631   -2.2024   -0.8148 H   0  0  0  0  0  0  0  0  0  0  0  0
   -7.5017   -0.9668   -0.1133 H   0  0  0  0  0  0  0  0  0  0  0  0
   -7.6225   -1.5121   -2.5996 H   0  0  0  0  0  0  0  0  0  0  0  0
   -6.3709   -0.3912   -4.0736 H   0  0  0  0  0  0  0  0  0  0  0  0
   -6.0105    0.8648   -2.9053 H   0  0  0  0  0  0  0  0  0  0  0  0
   -4.8154   -1.9509   -2.9343 H   0  0  0  0  0  0  0  0  0  0  0  0
   -3.9833   -0.5094   -3.4882 H   0  0  0  0  0  0  0  0  0  0  0  0
  1  2  1  0
  2  3  1  0
  3  4  2  0
  4  5  1  0
  5  6  2  0
  6  7  1  0
  7  8  2  0
  8  9  1  0
  7 10  1  0
  4 11  1  0
  2 12  1  0
 12 13  1  0
 13 14  2  0
 14 15  1  0
 15 16  2  0
 16 17  1  0
 17 18  2  0
 18 19  1  0
 15 20  1  0
 20 21  1  0
 21 22  2  0
 22 23  1  0
 23 24  1  0
 23 25  1  0
 25 26  1  0
 26 27  1  0
 27 28  1  0
 28 29  1  0
 29 30  1  0
  8  3  1  0
 18 13  1  0
 24 20  2  0
 30 25  1  0
  1 31  1  0
  1 32  1  0
  1 33  1  0
  2 34  1  6
  5 35  1  0
  6 36  1  0
 14 37  1  0
 16 38  1  0
 19 39  1  0
 19 40  1  0
 21 41  1  0
 24 42  1  0
 25 43  1  0
 26 44  1  0
 26 45  1  0
 27 46  1  0
 27 47  1  0
 28 48  1  0
 29 49  1  0
 29 50  1  0
 30 51  1  0
 30 52  1  0
M  END
>  <energy_abs>  (234) 
39.60819953824602

>  <SMILES>  (234) 
C[C@H](c1c(ccc(c1Cl)F)Cl)Oc2cc(cnc2N)c3cnn(c3)C4CCNCC4

>  <cluster_no>  (234) 
234

>  <fda_drugs_id>  (234) 
KTEIFNKAUNYNJU-GFCCVEGCSA-N

>  <initial_conformation_id>  (234) 
45

>  <minimize_method>  (234) 
MMFF

$$$$

     RDKit          3D

 52 55  0  0  0  0  0  0  0  0999 V2000
    4.1071    0.4871   -1.4679 C   0  0  0  0  0  0  0  0  0  0  0  0
    4.3034    0.5070    0.0566 C   0  0  2  0  0  0  0  0  0  0  0  0
    5.2887   -0.5732    0.5017 C   0  0  0  0  0  0  0  0  0  0  0  0
    6.5611   -0.2300    1.0185 C   0  0  0  0  0  0  0  0  0  0  0  0
    7.4796   -1.2062    1.4377 C   0  0  0  0  0  0  0  0  0  0  0  0
    7.1538   -2.5533    1.3430 C   0  0  0  0  0  0  0  0  0  0  0  0
    5.9176   -2.9185    0.8223 C   0  0  0  0  0  0  0  0  0  0  0  0
    4.9831   -1.9525    0.4211 C   0  0  0  0  0  0  0  0  0  0  0  0
    3.4469   -2.5496   -0.1295 Cl  0  0  0  0  0  0  0  0  0  0  0  0
    5.6372   -4.2298    0.7132 F   0  0  0  0  0  0  0  0  0  0  0  0
    7.0897    1.4095    1.1812 Cl  0  0  0  0  0  0  0  0  0  0  0  0
    3.1095    0.3471    0.8435 O   0  0  0  0  0  0  0  0  0  0  0  0
    2.0272    1.0922    0.4572 C   0  0  0  0  0  0  0  0  0  0  0  0
    0.8994    0.3613    0.0689 C   0  0  0  0  0  0  0  0  0  0  0  0
   -0.2695    1.0198   -0.3088 C   0  0  0  0  0  0  0  0  0  0  0  0
   -0.2305    2.4114   -0.2718 C   0  0  0  0  0  0  0  0  0  0  0  0
    0.8360    3.1470    0.1386 N   0  0  0  0  0  0  0  0  0  0  0  0
    1.9380    2.4870    0.5343 C   0  0  0  0  0  0  0  0  0  0  0  0
    2.9791    3.2808    1.0215 N   0  0  0  0  0  0  0  0  0  0  0  0
   -1.4512    0.2721   -0.7028 C   0  0  0  0  0  0  0  0  0  0  0  0
   -1.6135   -1.1015   -1.0227 C   0  0  0  0  0  0  0  0  0  0  0  0
   -2.8775   -1.4265   -1.2972 N   0  0  0  0  0  0  0  0  0  0  0  0
   -3.5450   -0.2682   -1.1513 N   0  0  0  0  0  0  0  0  0  0  0  0
   -2.7299    0.7815   -0.8177 C   0  0  0  0  0  0  0  0  0  0  0  0
   -4.9900   -0.2524   -1.3462 C   0  0  0  0  0  0  0  0  0  0  0  0
   -5.7328    0.3684   -0.1563 C   0  0  0  0  0  0  0  0  0  0  0  0
   -7.2336    0.4074   -0.4296 C   0  0  0  0  0  0  0  0  0  0  0  0
   -7.5364    1.1097   -1.6817 N   0  0  0  0  0  0  0  0  0  0  0  0
   -6.8893    0.4696   -2.8242 C   0  0  0  0  0  0  0  0  0  0  0  0
   -5.3731    0.4356   -2.6629 C   0  0  0  0  0  0  0  0  0  0  0  0
    3.5425    1.3698   -1.8053 H   0  0  0  0  0  0  0  0  0  0  0  0
    5.0783    0.4992   -1.9843 H   0  0  0  0  0  0  0  0  0  0  0  0
    3.5406   -0.3877   -1.8108 H   0  0  0  0  0  0  0  0  0  0  0  0
    4.7123    1.4853    0.3055 H   0  0  0  0  0  0  0  0  0  0  0  0
    8.4447   -0.9214    1.8551 H   0  0  0  0  0  0  0  0  0  0  0  0
    7.8578   -3.3190    1.6549 H   0  0  0  0  0  0  0  0  0  0  0  0
    0.9531   -0.7257    0.0791 H   0  0  0  0  0  0  0  0  0  0  0  0
   -1.0799    3.0166   -0.5723 H   0  0  0  0  0  0  0  0  0  0  0  0
    3.7606    3.3008    0.3724 H   0  0  0  0  0  0  0  0  0  0  0  0
    3.2923    2.9037    1.9116 H   0  0  0  0  0  0  0  0  0  0  0  0
   -0.8629   -1.8823   -1.0604 H   0  0  0  0  0  0  0  0  0  0  0  0
   -3.1319    1.7697   -0.6766 H   0  0  0  0  0  0  0  0  0  0  0  0
   -5.2974   -1.3082   -1.4126 H   0  0  0  0  0  0  0  0  0  0  0  0
   -5.3744    1.3892    0.0398 H   0  0  0  0  0  0  0  0  0  0  0  0
   -5.5360   -0.2140    0.7560 H   0  0  0  0  0  0  0  0  0  0  0  0
   -7.6449   -0.6112   -0.4655 H   0  0  0  0  0  0  0  0  0  0  0  0
   -7.7364    0.9206    0.3957 H   0  0  0  0  0  0  0  0  0  0  0  0
   -7.2299    2.0828   -1.6133 H   0  0  0  0  0  0  0  0  0  0  0  0
   -7.1481    1.0225   -3.7360 H   0  0  0  0  0  0  0  0  0  0  0  0
   -7.2854   -0.5444   -2.9514 H   0  0  0  0  0  0  0  0  0  0  0  0
   -4.9294   -0.1044   -3.5112 H   0  0  0  0  0  0  0  0  0  0  0  0
   -4.9734    1.4585   -2.6972 H   0  0  0  0  0  0  0  0  0  0  0  0
  1  2  1  0
  2  3  1  0
  3  4  2  0
  4  5  1  0
  5  6  2  0
  6  7  1  0
  7  8  2  0
  8  9  1  0
  7 10  1  0
  4 11  1  0
  2 12  1  0
 12 13  1  0
 13 14  2  0
 14 15  1  0
 15 16  2  0
 16 17  1  0
 17 18  2  0
 18 19  1  0
 15 20  1  0
 20 21  1  0
 21 22  2  0
 22 23  1  0
 23 24  1  0
 23 25  1  0
 25 26  1  0
 26 27  1  0
 27 28  1  0
 28 29  1  0
 29 30  1  0
  8  3  1  0
 18 13  1  0
 24 20  2  0
 30 25  1  0
  1 31  1  0
  1 32  1  0
  1 33  1  0
  2 34  1  1
  5 35  1  0
  6 36  1  0
 14 37  1  0
 16 38  1  0
 19 39  1  0
 19 40  1  0
 21 41  1  0
 24 42  1  0
 25 43  1  0
 26 44  1  0
 26 45  1  0
 27 46  1  0
 27 47  1  0
 28 48  1  0
 29 49  1  0
 29 50  1  0
 30 51  1  0
 30 52  1  0
M  END
>  <energy_abs>  (235) 
39.60473959506735

>  <SMILES>  (235) 
C[C@H](c1c(ccc(c1Cl)F)Cl)Oc2cc(cnc2N)c3cnn(c3)C4CCNCC4

>  <cluster_no>  (235) 
235

>  <fda_drugs_id>  (235) 
KTEIFNKAUNYNJU-GFCCVEGCSA-N

>  <initial_conformation_id>  (235) 
44

>  <minimize_method>  (235) 
MMFF

$$$$

     RDKit          3D

 52 55  0  0  0  0  0  0  0  0999 V2000
    3.2106   -1.1158   -1.5724 C   0  0  0  0  0  0  0  0  0  0  0  0
    3.7724   -0.2885   -0.4140 C   0  0  2  0  0  0  0  0  0  0  0  0
    5.0300   -0.9218    0.1683 C   0  0  0  0  0  0  0  0  0  0  0  0
    6.2945   -0.3165   -0.0155 C   0  0  0  0  0  0  0  0  0  0  0  0
    7.4680   -0.8857    0.5014 C   0  0  0  0  0  0  0  0  0  0  0  0
    7.4095   -2.0680    1.2251 C   0  0  0  0  0  0  0  0  0  0  0  0
    6.1797   -2.6663    1.4424 C   0  0  0  0  0  0  0  0  0  0  0  0
    5.0003   -2.1188    0.9184 C   0  0  0  0  0  0  0  0  0  0  0  0
    3.5336   -2.9745    1.2673 Cl  0  0  0  0  0  0  0  0  0  0  0  0
    6.1465   -3.7955    2.1656 F   0  0  0  0  0  0  0  0  0  0  0  0
    6.5057    1.1621   -0.8856 Cl  0  0  0  0  0  0  0  0  0  0  0  0
    2.8216   -0.1328    0.6549 O   0  0  0  0  0  0  0  0  0  0  0  0
    1.9331    0.8868    0.4404 C   0  0  0  0  0  0  0  0  0  0  0  0
    0.6522    0.5567   -0.0031 C   0  0  0  0  0  0  0  0  0  0  0  0
   -0.2976    1.5619   -0.1781 C   0  0  0  0  0  0  0  0  0  0  0  0
    0.1084    2.8595    0.1223 C   0  0  0  0  0  0  0  0  0  0  0  0
    1.3391    3.2007    0.5843 N   0  0  0  0  0  0  0  0  0  0  0  0
    2.2329    2.2150    0.7641 C   0  0  0  0  0  0  0  0  0  0  0  0
    3.4667    2.5632    1.3304 N   0  0  0  0  0  0  0  0  0  0  0  0
   -1.6438    1.2837   -0.6444 C   0  0  0  0  0  0  0  0  0  0  0  0
   -2.6212    2.1346   -1.2105 C   0  0  0  0  0  0  0  0  0  0  0  0
   -3.7589    1.4991   -1.4982 N   0  0  0  0  0  0  0  0  0  0  0  0
   -3.5307    0.2359   -1.1012 N   0  0  0  0  0  0  0  0  0  0  0  0
   -2.2704    0.0563   -0.5929 C   0  0  0  0  0  0  0  0  0  0  0  0
   -4.5645   -0.7896   -1.2109 C   0  0  0  0  0  0  0  0  0  0  0  0
   -5.1675   -0.9042   -2.6179 C   0  0  0  0  0  0  0  0  0  0  0  0
   -6.2879    0.1033   -2.8699 C   0  0  0  0  0  0  0  0  0  0  0  0
   -7.3082    0.0555   -1.8239 N   0  0  0  0  0  0  0  0  0  0  0  0
   -6.7224    0.3738   -0.5227 C   0  0  0  0  0  0  0  0  0  0  0  0
   -5.6465   -0.6372   -0.1349 C   0  0  0  0  0  0  0  0  0  0  0  0
    2.7366   -2.0446   -1.2403 H   0  0  0  0  0  0  0  0  0  0  0  0
    3.9895   -1.3629   -2.2988 H   0  0  0  0  0  0  0  0  0  0  0  0
    2.4355   -0.5479   -2.0962 H   0  0  0  0  0  0  0  0  0  0  0  0
    4.0033    0.6963   -0.8187 H   0  0  0  0  0  0  0  0  0  0  0  0
    8.4309   -0.4056    0.3449 H   0  0  0  0  0  0  0  0  0  0  0  0
    8.3100   -2.5171    1.6379 H   0  0  0  0  0  0  0  0  0  0  0  0
    0.4180   -0.4833   -0.2064 H   0  0  0  0  0  0  0  0  0  0  0  0
   -0.5664    3.7057    0.0202 H   0  0  0  0  0  0  0  0  0  0  0  0
    4.2205    2.3261    0.6964 H   0  0  0  0  0  0  0  0  0  0  0  0
    3.5890    2.0055    2.1717 H   0  0  0  0  0  0  0  0  0  0  0  0
   -2.5544    3.1917   -1.4297 H   0  0  0  0  0  0  0  0  0  0  0  0
   -1.9501   -0.9088   -0.2277 H   0  0  0  0  0  0  0  0  0  0  0  0
   -4.0344   -1.7317   -1.0134 H   0  0  0  0  0  0  0  0  0  0  0  0
   -5.5829   -1.9152   -2.7305 H   0  0  0  0  0  0  0  0  0  0  0  0
   -4.3913   -0.7984   -3.3857 H   0  0  0  0  0  0  0  0  0  0  0  0
   -5.8989    1.1202   -2.9693 H   0  0  0  0  0  0  0  0  0  0  0  0
   -6.7642   -0.1285   -3.8281 H   0  0  0  0  0  0  0  0  0  0  0  0
   -7.7334   -0.8686   -1.7945 H   0  0  0  0  0  0  0  0  0  0  0  0
   -7.5185    0.3565    0.2291 H   0  0  0  0  0  0  0  0  0  0  0  0
   -6.3266    1.3937   -0.5233 H   0  0  0  0  0  0  0  0  0  0  0  0
   -5.2043   -0.3555    0.8268 H   0  0  0  0  0  0  0  0  0  0  0  0
   -6.1245   -1.6131    0.0160 H   0  0  0  0  0  0  0  0  0  0  0  0
  1  2  1  0
  2  3  1  0
  3  4  2  0
  4  5  1  0
  5  6  2  0
  6  7  1  0
  7  8  2  0
  8  9  1  0
  7 10  1  0
  4 11  1  0
  2 12  1  0
 12 13  1  0
 13 14  2  0
 14 15  1  0
 15 16  2  0
 16 17  1  0
 17 18  2  0
 18 19  1  0
 15 20  1  0
 20 21  1  0
 21 22  2  0
 22 23  1  0
 23 24  1  0
 23 25  1  0
 25 26  1  0
 26 27  1  0
 27 28  1  0
 28 29  1  0
 29 30  1  0
  8  3  1  0
 18 13  1  0
 24 20  2  0
 30 25  1  0
  1 31  1  0
  1 32  1  0
  1 33  1  0
  2 34  1  6
  5 35  1  0
  6 36  1  0
 14 37  1  0
 16 38  1  0
 19 39  1  0
 19 40  1  0
 21 41  1  0
 24 42  1  0
 25 43  1  0
 26 44  1  0
 26 45  1  0
 27 46  1  0
 27 47  1  0
 28 48  1  0
 29 49  1  0
 29 50  1  0
 30 51  1  0
 30 52  1  0
M  END
>  <energy_abs>  (236) 
36.12006429325311

>  <SMILES>  (236) 
C[C@H](c1c(ccc(c1Cl)F)Cl)Oc2cc(cnc2N)c3cnn(c3)C4CCNCC4

>  <cluster_no>  (236) 
236

>  <fda_drugs_id>  (236) 
KTEIFNKAUNYNJU-GFCCVEGCSA-N

>  <initial_conformation_id>  (236) 
42

>  <minimize_method>  (236) 
MMFF

$$$$

     RDKit          3D

 52 55  0  0  0  0  0  0  0  0999 V2000
    6.2869    0.7124   -0.7295 C   0  0  0  0  0  0  0  0  0  0  0  0
    4.8561    0.7495   -0.1981 C   0  0  2  0  0  0  0  0  0  0  0  0
    4.4718   -0.5739    0.4626 C   0  0  0  0  0  0  0  0  0  0  0  0
    4.3681   -0.6625    1.8699 C   0  0  0  0  0  0  0  0  0  0  0  0
    3.9785   -1.8516    2.5010 C   0  0  0  0  0  0  0  0  0  0  0  0
    3.7007   -2.9880    1.7518 C   0  0  0  0  0  0  0  0  0  0  0  0
    3.8264   -2.9322    0.3733 C   0  0  0  0  0  0  0  0  0  0  0  0
    4.2049   -1.7502   -0.2762 C   0  0  0  0  0  0  0  0  0  0  0  0
    4.3208   -1.8225   -2.0015 Cl  0  0  0  0  0  0  0  0  0  0  0  0
    3.5720   -4.0518   -0.3253 F   0  0  0  0  0  0  0  0  0  0  0  0
    4.7240    0.6682    2.9217 Cl  0  0  0  0  0  0  0  0  0  0  0  0
    3.9747    1.0937   -1.2874 O   0  0  0  0  0  0  0  0  0  0  0  0
    2.8127    1.6751   -0.8424 C   0  0  0  0  0  0  0  0  0  0  0  0
    1.6391    0.9274   -0.9130 C   0  0  0  0  0  0  0  0  0  0  0  0
    0.4398    1.4801   -0.4576 C   0  0  0  0  0  0  0  0  0  0  0  0
    0.5010    2.7863    0.0388 C   0  0  0  0  0  0  0  0  0  0  0  0
    1.6204    3.5520    0.0774 N   0  0  0  0  0  0  0  0  0  0  0  0
    2.7543    2.9953   -0.3860 C   0  0  0  0  0  0  0  0  0  0  0  0
    3.8862    3.8078   -0.3658 N   0  0  0  0  0  0  0  0  0  0  0  0
   -0.7982    0.7155   -0.5010 C   0  0  0  0  0  0  0  0  0  0  0  0
   -1.0345   -0.6641   -0.7451 C   0  0  0  0  0  0  0  0  0  0  0  0
   -2.3321   -0.9804   -0.7379 N   0  0  0  0  0  0  0  0  0  0  0  0
   -2.9431    0.1879   -0.4620 N   0  0  0  0  0  0  0  0  0  0  0  0
   -2.0685    1.2344   -0.3307 C   0  0  0  0  0  0  0  0  0  0  0  0
   -4.3953    0.2713   -0.3633 C   0  0  0  0  0  0  0  0  0  0  0  0
   -5.0243   -0.8877    0.4310 C   0  0  0  0  0  0  0  0  0  0  0  0
   -5.7227   -1.8758   -0.4949 C   0  0  0  0  0  0  0  0  0  0  0  0
   -6.7905   -1.2526   -1.2838 N   0  0  0  0  0  0  0  0  0  0  0  0
   -6.5160    0.1262   -1.6866 C   0  0  0  0  0  0  0  0  0  0  0  0
   -5.0284    0.4428   -1.7507 C   0  0  0  0  0  0  0  0  0  0  0  0
    6.9887    0.4044    0.0440 H   0  0  0  0  0  0  0  0  0  0  0  0
    6.5778    1.7067   -1.0812 H   0  0  0  0  0  0  0  0  0  0  0  0
    6.4026    0.0384   -1.5798 H   0  0  0  0  0  0  0  0  0  0  0  0
    4.8398    1.5644    0.5304 H   0  0  0  0  0  0  0  0  0  0  0  0
    3.8926   -1.8955    3.5828 H   0  0  0  0  0  0  0  0  0  0  0  0
    3.3951   -3.9156    2.2263 H   0  0  0  0  0  0  0  0  0  0  0  0
    1.6819   -0.0792   -1.3243 H   0  0  0  0  0  0  0  0  0  0  0  0
   -0.3772    3.2888    0.4421 H   0  0  0  0  0  0  0  0  0  0  0  0
    4.3303    3.8194   -1.2837 H   0  0  0  0  0  0  0  0  0  0  0  0
    3.5775    4.7362   -0.0681 H   0  0  0  0  0  0  0  0  0  0  0  0
   -0.3159   -1.4523   -0.9384 H   0  0  0  0  0  0  0  0  0  0  0  0
   -2.4309    2.2370   -0.1424 H   0  0  0  0  0  0  0  0  0  0  0  0
   -4.5848    1.1868    0.2147 H   0  0  0  0  0  0  0  0  0  0  0  0
   -4.2882   -1.4108    1.0497 H   0  0  0  0  0  0  0  0  0  0  0  0
   -5.7661   -0.4783    1.1287 H   0  0  0  0  0  0  0  0  0  0  0  0
   -4.9988   -2.3397   -1.1746 H   0  0  0  0  0  0  0  0  0  0  0  0
   -6.1539   -2.6952    0.0973 H   0  0  0  0  0  0  0  0  0  0  0  0
   -7.6702   -1.2785   -0.7636 H   0  0  0  0  0  0  0  0  0  0  0  0
   -6.9987    0.8046   -0.9685 H   0  0  0  0  0  0  0  0  0  0  0  0
   -6.9848    0.3158   -2.6621 H   0  0  0  0  0  0  0  0  0  0  0  0
   -4.5424   -0.2053   -2.4906 H   0  0  0  0  0  0  0  0  0  0  0  0
   -4.8806    1.4736   -2.1013 H   0  0  0  0  0  0  0  0  0  0  0  0
  1  2  1  0
  2  3  1  0
  3  4  2  0
  4  5  1  0
  5  6  2  0
  6  7  1  0
  7  8  2  0
  8  9  1  0
  7 10  1  0
  4 11  1  0
  2 12  1  0
 12 13  1  0
 13 14  2  0
 14 15  1  0
 15 16  2  0
 16 17  1  0
 17 18  2  0
 18 19  1  0
 15 20  1  0
 20 21  1  0
 21 22  2  0
 22 23  1  0
 23 24  1  0
 23 25  1  0
 25 26  1  0
 26 27  1  0
 27 28  1  0
 28 29  1  0
 29 30  1  0
  8  3  1  0
 18 13  1  0
 24 20  2  0
 30 25  1  0
  1 31  1  0
  1 32  1  0
  1 33  1  0
  2 34  1  1
  5 35  1  0
  6 36  1  0
 14 37  1  0
 16 38  1  0
 19 39  1  0
 19 40  1  0
 21 41  1  0
 24 42  1  0
 25 43  1  0
 26 44  1  0
 26 45  1  0
 27 46  1  0
 27 47  1  0
 28 48  1  0
 29 49  1  0
 29 50  1  0
 30 51  1  0
 30 52  1  0
M  END
>  <energy_abs>  (237) 
29.056424972131982

>  <SMILES>  (237) 
C[C@H](c1c(ccc(c1Cl)F)Cl)Oc2cc(cnc2N)c3cnn(c3)C4CCNCC4

>  <cluster_no>  (237) 
237

>  <fda_drugs_id>  (237) 
KTEIFNKAUNYNJU-GFCCVEGCSA-N

>  <initial_conformation_id>  (237) 
41

>  <minimize_method>  (237) 
MMFF

$$$$

     RDKit          3D

 52 55  0  0  0  0  0  0  0  0999 V2000
    3.0784   -1.0442    2.3307 C   0  0  0  0  0  0  0  0  0  0  0  0
    3.4680   -0.6629    0.9015 C   0  0  2  0  0  0  0  0  0  0  0  0
    4.9413   -0.9797    0.6438 C   0  0  0  0  0  0  0  0  0  0  0  0
    5.9955   -0.1465    1.0874 C   0  0  0  0  0  0  0  0  0  0  0  0
    7.3373   -0.4622    0.8217 C   0  0  0  0  0  0  0  0  0  0  0  0
    7.6660   -1.6179    0.1246 C   0  0  0  0  0  0  0  0  0  0  0  0
    6.6513   -2.4641   -0.2931 C   0  0  0  0  0  0  0  0  0  0  0  0
    5.3062   -2.1648   -0.0376 C   0  0  0  0  0  0  0  0  0  0  0  0
    4.1317   -3.3242   -0.5701 Cl  0  0  0  0  0  0  0  0  0  0  0  0
    6.9907   -3.5876   -0.9431 F   0  0  0  0  0  0  0  0  0  0  0  0
    5.7443    1.2987    2.0082 Cl  0  0  0  0  0  0  0  0  0  0  0  0
    3.2301    0.7298    0.6666 O   0  0  0  0  0  0  0  0  0  0  0  0
    2.0212    1.1527    0.1804 C   0  0  0  0  0  0  0  0  0  0  0  0
    0.8571    0.3871    0.0908 C   0  0  0  0  0  0  0  0  0  0  0  0
   -0.3162    0.9481   -0.4281 C   0  0  0  0  0  0  0  0  0  0  0  0
   -0.2481    2.2785   -0.8315 C   0  0  0  0  0  0  0  0  0  0  0  0
    0.8581    3.0548   -0.7455 N   0  0  0  0  0  0  0  0  0  0  0  0
    1.9686    2.4934   -0.2408 C   0  0  0  0  0  0  0  0  0  0  0  0
    3.1163    3.3056   -0.1482 N   0  0  0  0  0  0  0  0  0  0  0  0
   -1.5368    0.1640   -0.5357 C   0  0  0  0  0  0  0  0  0  0  0  0
   -1.7534   -1.2319   -0.4363 C   0  0  0  0  0  0  0  0  0  0  0  0
   -3.0349   -1.5727   -0.5835 N   0  0  0  0  0  0  0  0  0  0  0  0
   -3.6570   -0.3972   -0.7925 N   0  0  0  0  0  0  0  0  0  0  0  0
   -2.8013    0.6706   -0.7609 C   0  0  0  0  0  0  0  0  0  0  0  0
   -5.1026   -0.3815   -0.9976 C   0  0  0  0  0  0  0  0  0  0  0  0
   -5.8510    0.3091    0.1545 C   0  0  0  0  0  0  0  0  0  0  0  0
   -6.2748    1.7241   -0.2205 C   0  0  0  0  0  0  0  0  0  0  0  0
   -7.1116    1.7824   -1.4161 N   0  0  0  0  0  0  0  0  0  0  0  0
   -6.9125    0.6875   -2.3654 C   0  0  0  0  0  0  0  0  0  0  0  0
   -5.4770    0.1837   -2.3747 C   0  0  0  0  0  0  0  0  0  0  0  0
    2.0367   -0.7825    2.5400 H   0  0  0  0  0  0  0  0  0  0  0  0
    3.2013   -2.1168    2.4982 H   0  0  0  0  0  0  0  0  0  0  0  0
    3.6818   -0.5149    3.0733 H   0  0  0  0  0  0  0  0  0  0  0  0
    2.8640   -1.2337    0.1934 H   0  0  0  0  0  0  0  0  0  0  0  0
    8.1347    0.1942    1.1654 H   0  0  0  0  0  0  0  0  0  0  0  0
    8.7015   -1.8699   -0.0835 H   0  0  0  0  0  0  0  0  0  0  0  0
    0.8391   -0.6389    0.4371 H   0  0  0  0  0  0  0  0  0  0  0  0
   -1.1038    2.7934   -1.2569 H   0  0  0  0  0  0  0  0  0  0  0  0
    3.4250    3.2852    0.8215 H   0  0  0  0  0  0  0  0  0  0  0  0
    3.8558    2.8510   -0.6769 H   0  0  0  0  0  0  0  0  0  0  0  0
   -1.0320   -2.0194   -0.2625 H   0  0  0  0  0  0  0  0  0  0  0  0
   -3.1663    1.6783   -0.9001 H   0  0  0  0  0  0  0  0  0  0  0  0
   -5.4077   -1.4380   -0.9788 H   0  0  0  0  0  0  0  0  0  0  0  0
   -6.7546   -0.2714    0.3876 H   0  0  0  0  0  0  0  0  0  0  0  0
   -5.2515    0.3233    1.0741 H   0  0  0  0  0  0  0  0  0  0  0  0
   -5.3889    2.3475   -0.3848 H   0  0  0  0  0  0  0  0  0  0  0  0
   -6.8155    2.1817    0.6153 H   0  0  0  0  0  0  0  0  0  0  0  0
   -8.0992    1.8275   -1.1571 H   0  0  0  0  0  0  0  0  0  0  0  0
   -7.1898    1.0374   -3.3646 H   0  0  0  0  0  0  0  0  0  0  0  0
   -7.5905   -0.1395   -2.1194 H   0  0  0  0  0  0  0  0  0  0  0  0
   -4.8107    1.0018   -2.6731 H   0  0  0  0  0  0  0  0  0  0  0  0
   -5.3585   -0.5962   -3.1364 H   0  0  0  0  0  0  0  0  0  0  0  0
  1  2  1  0
  2  3  1  0
  3  4  2  0
  4  5  1  0
  5  6  2  0
  6  7  1  0
  7  8  2  0
  8  9  1  0
  7 10  1  0
  4 11  1  0
  2 12  1  0
 12 13  1  0
 13 14  2  0
 14 15  1  0
 15 16  2  0
 16 17  1  0
 17 18  2  0
 18 19  1  0
 15 20  1  0
 20 21  1  0
 21 22  2  0
 22 23  1  0
 23 24  1  0
 23 25  1  0
 25 26  1  0
 26 27  1  0
 27 28  1  0
 28 29  1  0
 29 30  1  0
  8  3  1  0
 18 13  1  0
 24 20  2  0
 30 25  1  0
  1 31  1  0
  1 32  1  0
  1 33  1  0
  2 34  1  6
  5 35  1  0
  6 36  1  0
 14 37  1  0
 16 38  1  0
 19 39  1  0
 19 40  1  0
 21 41  1  0
 24 42  1  0
 25 43  1  0
 26 44  1  0
 26 45  1  0
 27 46  1  0
 27 47  1  0
 28 48  1  0
 29 49  1  0
 29 50  1  0
 30 51  1  0
 30 52  1  0
M  END
>  <energy_abs>  (238) 
39.872617081376376

>  <SMILES>  (238) 
C[C@H](c1c(ccc(c1Cl)F)Cl)Oc2cc(cnc2N)c3cnn(c3)C4CCNCC4

>  <cluster_no>  (238) 
238

>  <fda_drugs_id>  (238) 
KTEIFNKAUNYNJU-GFCCVEGCSA-N

>  <initial_conformation_id>  (238) 
40

>  <minimize_method>  (238) 
MMFF

$$$$

     RDKit          3D

 52 55  0  0  0  0  0  0  0  0999 V2000
    2.8073   -2.9340    1.0412 C   0  0  0  0  0  0  0  0  0  0  0  0
    3.0922   -1.5433    0.4689 C   0  0  2  0  0  0  0  0  0  0  0  0
    4.5674   -1.3790    0.1209 C   0  0  0  0  0  0  0  0  0  0  0  0
    4.9935   -1.4456   -1.2267 C   0  0  0  0  0  0  0  0  0  0  0  0
    6.3399   -1.2741   -1.5805 C   0  0  0  0  0  0  0  0  0  0  0  0
    7.2972   -1.0398   -0.6020 C   0  0  0  0  0  0  0  0  0  0  0  0
    6.9059   -0.9909    0.7279 C   0  0  0  0  0  0  0  0  0  0  0  0
    5.5649   -1.1623    1.0996 C   0  0  0  0  0  0  0  0  0  0  0  0
    5.2210   -1.0982    2.7980 Cl  0  0  0  0  0  0  0  0  0  0  0  0
    7.8499   -0.7748    1.6568 F   0  0  0  0  0  0  0  0  0  0  0  0
    3.9063   -1.7702   -2.5365 Cl  0  0  0  0  0  0  0  0  0  0  0  0
    2.6440   -0.5628    1.4276 O   0  0  0  0  0  0  0  0  0  0  0  0
    1.9845    0.4725    0.8167 C   0  0  0  0  0  0  0  0  0  0  0  0
    0.6122    0.3637    0.5944 C   0  0  0  0  0  0  0  0  0  0  0  0
   -0.0713    1.4201   -0.0087 C   0  0  0  0  0  0  0  0  0  0  0  0
    0.6815    2.5466   -0.3380 C   0  0  0  0  0  0  0  0  0  0  0  0
    2.0126    2.6874   -0.1058 N   0  0  0  0  0  0  0  0  0  0  0  0
    2.6430    1.6576    0.4827 C   0  0  0  0  0  0  0  0  0  0  0  0
    4.0108    1.8211    0.7027 N   0  0  0  0  0  0  0  0  0  0  0  0
   -1.4966    1.3651   -0.2789 C   0  0  0  0  0  0  0  0  0  0  0  0
   -2.4396    2.3998   -0.4845 C   0  0  0  0  0  0  0  0  0  0  0  0
   -3.6698    1.9410   -0.7229 N   0  0  0  0  0  0  0  0  0  0  0  0
   -3.5274    0.6042   -0.6722 N   0  0  0  0  0  0  0  0  0  0  0  0
   -2.2425    0.2114   -0.4125 C   0  0  0  0  0  0  0  0  0  0  0  0
   -4.6734   -0.2735   -0.8945 C   0  0  0  0  0  0  0  0  0  0  0  0
   -5.0228   -0.3520   -2.3874 C   0  0  0  0  0  0  0  0  0  0  0  0
   -6.4615   -0.8158   -2.5719 C   0  0  0  0  0  0  0  0  0  0  0  0
   -7.4315    0.0968   -1.9714 N   0  0  0  0  0  0  0  0  0  0  0  0
   -6.9280    0.8621   -0.8309 C   0  0  0  0  0  0  0  0  0  0  0  0
   -5.8848    0.0993   -0.0233 C   0  0  0  0  0  0  0  0  0  0  0  0
    3.1113   -3.7213    0.3438 H   0  0  0  0  0  0  0  0  0  0  0  0
    1.7357   -3.0439    1.2433 H   0  0  0  0  0  0  0  0  0  0  0  0
    3.3173   -3.1051    1.9936 H   0  0  0  0  0  0  0  0  0  0  0  0
    2.4714   -1.4602   -0.4300 H   0  0  0  0  0  0  0  0  0  0  0  0
    6.6453   -1.3214   -2.6243 H   0  0  0  0  0  0  0  0  0  0  0  0
    8.3414   -0.9015   -0.8634 H   0  0  0  0  0  0  0  0  0  0  0  0
    0.0968   -0.5392    0.9040 H   0  0  0  0  0  0  0  0  0  0  0  0
    0.2312    3.4086   -0.8240 H   0  0  0  0  0  0  0  0  0  0  0  0
    4.2387    2.7850    0.4762 H   0  0  0  0  0  0  0  0  0  0  0  0
    4.2443    1.5763    1.6603 H   0  0  0  0  0  0  0  0  0  0  0  0
   -2.2853    3.4710   -0.4673 H   0  0  0  0  0  0  0  0  0  0  0  0
   -1.9798   -0.8354   -0.3579 H   0  0  0  0  0  0  0  0  0  0  0  0
   -4.3418   -1.2683   -0.5656 H   0  0  0  0  0  0  0  0  0  0  0  0
   -4.8882    0.6201   -2.8798 H   0  0  0  0  0  0  0  0  0  0  0  0
   -4.3367   -1.0444   -2.8902 H   0  0  0  0  0  0  0  0  0  0  0  0
   -6.6868   -0.9127   -3.6399 H   0  0  0  0  0  0  0  0  0  0  0  0
   -6.5799   -1.8132   -2.1303 H   0  0  0  0  0  0  0  0  0  0  0  0
   -8.2784   -0.4110   -1.7182 H   0  0  0  0  0  0  0  0  0  0  0  0
   -7.7718    1.1304   -0.1851 H   0  0  0  0  0  0  0  0  0  0  0  0
   -6.5085    1.8077   -1.1937 H   0  0  0  0  0  0  0  0  0  0  0  0
   -5.5882    0.6803    0.8576 H   0  0  0  0  0  0  0  0  0  0  0  0
   -6.3450   -0.8216    0.3605 H   0  0  0  0  0  0  0  0  0  0  0  0
  1  2  1  0
  2  3  1  0
  3  4  2  0
  4  5  1  0
  5  6  2  0
  6  7  1  0
  7  8  2  0
  8  9  1  0
  7 10  1  0
  4 11  1  0
  2 12  1  0
 12 13  1  0
 13 14  2  0
 14 15  1  0
 15 16  2  0
 16 17  1  0
 17 18  2  0
 18 19  1  0
 15 20  1  0
 20 21  1  0
 21 22  2  0
 22 23  1  0
 23 24  1  0
 23 25  1  0
 25 26  1  0
 26 27  1  0
 27 28  1  0
 28 29  1  0
 29 30  1  0
  8  3  1  0
 18 13  1  0
 24 20  2  0
 30 25  1  0
  1 31  1  0
  1 32  1  0
  1 33  1  0
  2 34  1  6
  5 35  1  0
  6 36  1  0
 14 37  1  0
 16 38  1  0
 19 39  1  0
 19 40  1  0
 21 41  1  0
 24 42  1  0
 25 43  1  0
 26 44  1  0
 26 45  1  0
 27 46  1  0
 27 47  1  0
 28 48  1  0
 29 49  1  0
 29 50  1  0
 30 51  1  0
 30 52  1  0
M  END
>  <energy_abs>  (239) 
28.430883342319795

>  <SMILES>  (239) 
C[C@H](c1c(ccc(c1Cl)F)Cl)Oc2cc(cnc2N)c3cnn(c3)C4CCNCC4

>  <cluster_no>  (239) 
239

>  <fda_drugs_id>  (239) 
KTEIFNKAUNYNJU-GFCCVEGCSA-N

>  <initial_conformation_id>  (239) 
39

>  <minimize_method>  (239) 
MMFF

$$$$

     RDKit          3D

 52 55  0  0  0  0  0  0  0  0999 V2000
    3.2744   -1.1592   -1.6537 C   0  0  0  0  0  0  0  0  0  0  0  0
    3.8008   -0.4950   -0.3754 C   0  0  2  0  0  0  0  0  0  0  0  0
    5.1307   -1.1127    0.0491 C   0  0  0  0  0  0  0  0  0  0  0  0
    5.2186   -2.3791    0.6747 C   0  0  0  0  0  0  0  0  0  0  0  0
    6.4551   -2.9180    1.0620 C   0  0  0  0  0  0  0  0  0  0  0  0
    7.6329   -2.2191    0.8273 C   0  0  0  0  0  0  0  0  0  0  0  0
    7.5729   -0.9871    0.1946 C   0  0  0  0  0  0  0  0  0  0  0  0
    6.3473   -0.4345   -0.2006 C   0  0  0  0  0  0  0  0  0  0  0  0
    6.4119    1.0864   -1.0326 Cl  0  0  0  0  0  0  0  0  0  0  0  0
    8.7249   -0.3381   -0.0348 F   0  0  0  0  0  0  0  0  0  0  0  0
    3.8443   -3.3830    0.9962 Cl  0  0  0  0  0  0  0  0  0  0  0  0
    2.8497   -0.6325    0.7000 O   0  0  0  0  0  0  0  0  0  0  0  0
    1.8916    0.3450    0.6947 C   0  0  0  0  0  0  0  0  0  0  0  0
    0.5986   -0.0117    0.3173 C   0  0  0  0  0  0  0  0  0  0  0  0
   -0.4061    0.9558    0.3090 C   0  0  0  0  0  0  0  0  0  0  0  0
   -0.0470    2.2382    0.7204 C   0  0  0  0  0  0  0  0  0  0  0  0
    1.1974    2.6034    1.1263 N   0  0  0  0  0  0  0  0  0  0  0  0
    2.1445    1.6504    1.1261 C   0  0  0  0  0  0  0  0  0  0  0  0
    3.4134    2.0454    1.5545 N   0  0  0  0  0  0  0  0  0  0  0  0
   -1.7529    0.6257   -0.1142 C   0  0  0  0  0  0  0  0  0  0  0  0
   -2.4503   -0.6039   -0.0960 C   0  0  0  0  0  0  0  0  0  0  0  0
   -3.6782   -0.5111   -0.6100 N   0  0  0  0  0  0  0  0  0  0  0  0
   -3.7800    0.7838   -0.9633 N   0  0  0  0  0  0  0  0  0  0  0  0
   -2.6510    1.5051   -0.6843 C   0  0  0  0  0  0  0  0  0  0  0  0
   -5.0047    1.2932   -1.5749 C   0  0  0  0  0  0  0  0  0  0  0  0
   -6.1055    1.4815   -0.5215 C   0  0  0  0  0  0  0  0  0  0  0  0
   -7.4771    1.4938   -1.1824 C   0  0  0  0  0  0  0  0  0  0  0  0
   -7.7842    0.2437   -1.8720 N   0  0  0  0  0  0  0  0  0  0  0  0
   -6.6161   -0.4795   -2.3768 C   0  0  0  0  0  0  0  0  0  0  0  0
   -5.4708    0.4457   -2.7711 C   0  0  0  0  0  0  0  0  0  0  0  0
    4.0330   -1.1639   -2.4433 H   0  0  0  0  0  0  0  0  0  0  0  0
    2.4019   -0.6153   -2.0324 H   0  0  0  0  0  0  0  0  0  0  0  0
    2.9457   -2.1885   -1.4819 H   0  0  0  0  0  0  0  0  0  0  0  0
    3.9391    0.5677   -0.5935 H   0  0  0  0  0  0  0  0  0  0  0  0
    6.5021   -3.8917    1.5457 H   0  0  0  0  0  0  0  0  0  0  0  0
    8.5935   -2.6284    1.1228 H   0  0  0  0  0  0  0  0  0  0  0  0
    0.4021   -1.0342    0.0117 H   0  0  0  0  0  0  0  0  0  0  0  0
   -0.7730    3.0467    0.7534 H   0  0  0  0  0  0  0  0  0  0  0  0
    3.3330    3.0019    1.8886 H   0  0  0  0  0  0  0  0  0  0  0  0
    3.7569    1.4123    2.2688 H   0  0  0  0  0  0  0  0  0  0  0  0
   -2.1145   -1.5643    0.2735 H   0  0  0  0  0  0  0  0  0  0  0  0
   -2.5863    2.5566   -0.9258 H   0  0  0  0  0  0  0  0  0  0  0  0
   -4.7369    2.2815   -1.9737 H   0  0  0  0  0  0  0  0  0  0  0  0
   -6.0739    0.6872    0.2355 H   0  0  0  0  0  0  0  0  0  0  0  0
   -5.9402    2.4212    0.0185 H   0  0  0  0  0  0  0  0  0  0  0  0
   -7.5267    2.3231   -1.8978 H   0  0  0  0  0  0  0  0  0  0  0  0
   -8.2509    1.6786   -0.4299 H   0  0  0  0  0  0  0  0  0  0  0  0
   -8.4507    0.4174   -2.6232 H   0  0  0  0  0  0  0  0  0  0  0  0
   -6.2826   -1.1914   -1.6122 H   0  0  0  0  0  0  0  0  0  0  0  0
   -6.9191   -1.0804   -3.2418 H   0  0  0  0  0  0  0  0  0  0  0  0
   -4.6467   -0.1336   -3.2049 H   0  0  0  0  0  0  0  0  0  0  0  0
   -5.8223    1.1173   -3.5668 H   0  0  0  0  0  0  0  0  0  0  0  0
  1  2  1  0
  2  3  1  0
  3  4  2  0
  4  5  1  0
  5  6  2  0
  6  7  1  0
  7  8  2  0
  8  9  1  0
  7 10  1  0
  4 11  1  0
  2 12  1  0
 12 13  1  0
 13 14  2  0
 14 15  1  0
 15 16  2  0
 16 17  1  0
 17 18  2  0
 18 19  1  0
 15 20  1  0
 20 21  1  0
 21 22  2  0
 22 23  1  0
 23 24  1  0
 23 25  1  0
 25 26  1  0
 26 27  1  0
 27 28  1  0
 28 29  1  0
 29 30  1  0
  8  3  1  0
 18 13  1  0
 24 20  2  0
 30 25  1  0
  1 31  1  0
  1 32  1  0
  1 33  1  0
  2 34  1  6
  5 35  1  0
  6 36  1  0
 14 37  1  0
 16 38  1  0
 19 39  1  0
 19 40  1  0
 21 41  1  0
 24 42  1  0
 25 43  1  0
 26 44  1  0
 26 45  1  0
 27 46  1  0
 27 47  1  0
 28 48  1  0
 29 49  1  0
 29 50  1  0
 30 51  1  0
 30 52  1  0
M  END
>  <energy_abs>  (240) 
29.533181656467228

>  <SMILES>  (240) 
C[C@H](c1c(ccc(c1Cl)F)Cl)Oc2cc(cnc2N)c3cnn(c3)C4CCNCC4

>  <cluster_no>  (240) 
240

>  <fda_drugs_id>  (240) 
KTEIFNKAUNYNJU-GFCCVEGCSA-N

>  <initial_conformation_id>  (240) 
38

>  <minimize_method>  (240) 
MMFF

$$$$

     RDKit          3D

 52 55  0  0  0  0  0  0  0  0999 V2000
    4.3161   -0.0958    2.6422 C   0  0  0  0  0  0  0  0  0  0  0  0
    3.6414   -0.2968    1.2836 C   0  0  2  0  0  0  0  0  0  0  0  0
    4.4135   -1.2700    0.3985 C   0  0  0  0  0  0  0  0  0  0  0  0
    3.9120   -2.5702    0.1530 C   0  0  0  0  0  0  0  0  0  0  0  0
    4.6055   -3.4842   -0.6540 C   0  0  0  0  0  0  0  0  0  0  0  0
    5.8187   -3.1314   -1.2309 C   0  0  0  0  0  0  0  0  0  0  0  0
    6.3337   -1.8647   -0.9997 C   0  0  0  0  0  0  0  0  0  0  0  0
    5.6525   -0.9363   -0.1990 C   0  0  0  0  0  0  0  0  0  0  0  0
    6.4155    0.6072    0.0079 Cl  0  0  0  0  0  0  0  0  0  0  0  0
    7.5143   -1.5543   -1.5538 F   0  0  0  0  0  0  0  0  0  0  0  0
    2.4226   -3.1453    0.8279 Cl  0  0  0  0  0  0  0  0  0  0  0  0
    3.5074    0.9581    0.5928 O   0  0  0  0  0  0  0  0  0  0  0  0
    2.2700    1.5276    0.7403 C   0  0  0  0  0  0  0  0  0  0  0  0
    1.1420    0.9526    0.1553 C   0  0  0  0  0  0  0  0  0  0  0  0
   -0.0962    1.5810    0.2912 C   0  0  0  0  0  0  0  0  0  0  0  0
   -0.1193    2.7813    0.9973 C   0  0  0  0  0  0  0  0  0  0  0  0
    0.9693    3.3778    1.5495 N   0  0  0  0  0  0  0  0  0  0  0  0
    2.1492    2.7507    1.4039 C   0  0  0  0  0  0  0  0  0  0  0  0
    3.2500    3.3498    2.0181 N   0  0  0  0  0  0  0  0  0  0  0  0
   -1.2954    0.9887   -0.2651 C   0  0  0  0  0  0  0  0  0  0  0  0
   -1.6229   -0.3633   -0.5145 C   0  0  0  0  0  0  0  0  0  0  0  0
   -2.8404   -0.5125   -1.0388 N   0  0  0  0  0  0  0  0  0  0  0  0
   -3.3055    0.7465   -1.1396 N   0  0  0  0  0  0  0  0  0  0  0  0
   -2.4117    1.6809   -0.6842 C   0  0  0  0  0  0  0  0  0  0  0  0
   -4.6394    1.0236   -1.6695 C   0  0  0  0  0  0  0  0  0  0  0  0
   -5.7314    0.7677   -0.6241 C   0  0  0  0  0  0  0  0  0  0  0  0
   -6.1241   -0.7040   -0.5429 C   0  0  0  0  0  0  0  0  0  0  0  0
   -6.5236   -1.2037   -1.8599 N   0  0  0  0  0  0  0  0  0  0  0  0
   -5.4056   -1.1337   -2.8024 C   0  0  0  0  0  0  0  0  0  0  0  0
   -4.9334    0.3055   -2.9944 C   0  0  0  0  0  0  0  0  0  0  0  0
    5.2855    0.4040    2.5588 H   0  0  0  0  0  0  0  0  0  0  0  0
    4.4586   -1.0519    3.1560 H   0  0  0  0  0  0  0  0  0  0  0  0
    3.6967    0.5457    3.2797 H   0  0  0  0  0  0  0  0  0  0  0  0
    2.6474   -0.6989    1.5000 H   0  0  0  0  0  0  0  0  0  0  0  0
    4.2036   -4.4812   -0.8299 H   0  0  0  0  0  0  0  0  0  0  0  0
    6.3674   -3.8328   -1.8524 H   0  0  0  0  0  0  0  0  0  0  0  0
    1.2419    0.0319   -0.4105 H   0  0  0  0  0  0  0  0  0  0  0  0
   -1.0465    3.3240    1.1614 H   0  0  0  0  0  0  0  0  0  0  0  0
    4.0445    3.3710    1.3862 H   0  0  0  0  0  0  0  0  0  0  0  0
    2.9637    4.2694    2.3386 H   0  0  0  0  0  0  0  0  0  0  0  0
   -1.0285   -1.2481   -0.3266 H   0  0  0  0  0  0  0  0  0  0  0  0
   -2.6468    2.7363   -0.7078 H   0  0  0  0  0  0  0  0  0  0  0  0
   -4.6308    2.1015   -1.8832 H   0  0  0  0  0  0  0  0  0  0  0  0
   -6.6208    1.3503   -0.8999 H   0  0  0  0  0  0  0  0  0  0  0  0
   -5.4195    1.1228    0.3649 H   0  0  0  0  0  0  0  0  0  0  0  0
   -6.9733   -0.8057    0.1414 H   0  0  0  0  0  0  0  0  0  0  0  0
   -5.3134   -1.3129   -0.1259 H   0  0  0  0  0  0  0  0  0  0  0  0
   -6.8047   -2.1807   -1.7657 H   0  0  0  0  0  0  0  0  0  0  0  0
   -5.7422   -1.5232   -3.7715 H   0  0  0  0  0  0  0  0  0  0  0  0
   -4.5893   -1.7870   -2.4758 H   0  0  0  0  0  0  0  0  0  0  0  0
   -5.7251    0.8586   -3.5166 H   0  0  0  0  0  0  0  0  0  0  0  0
   -4.0560    0.3237   -3.6522 H   0  0  0  0  0  0  0  0  0  0  0  0
  1  2  1  0
  2  3  1  0
  3  4  2  0
  4  5  1  0
  5  6  2  0
  6  7  1  0
  7  8  2  0
  8  9  1  0
  7 10  1  0
  4 11  1  0
  2 12  1  0
 12 13  1  0
 13 14  2  0
 14 15  1  0
 15 16  2  0
 16 17  1  0
 17 18  2  0
 18 19  1  0
 15 20  1  0
 20 21  1  0
 21 22  2  0
 22 23  1  0
 23 24  1  0
 23 25  1  0
 25 26  1  0
 26 27  1  0
 27 28  1  0
 28 29  1  0
 29 30  1  0
  8  3  1  0
 18 13  1  0
 24 20  2  0
 30 25  1  0
  1 31  1  0
  1 32  1  0
  1 33  1  0
  2 34  1  1
  5 35  1  0
  6 36  1  0
 14 37  1  0
 16 38  1  0
 19 39  1  0
 19 40  1  0
 21 41  1  0
 24 42  1  0
 25 43  1  0
 26 44  1  0
 26 45  1  0
 27 46  1  0
 27 47  1  0
 28 48  1  0
 29 49  1  0
 29 50  1  0
 30 51  1  0
 30 52  1  0
M  END
>  <energy_abs>  (241) 
21.649901549534157

>  <SMILES>  (241) 
C[C@H](c1c(ccc(c1Cl)F)Cl)Oc2cc(cnc2N)c3cnn(c3)C4CCNCC4

>  <cluster_no>  (241) 
241

>  <fda_drugs_id>  (241) 
KTEIFNKAUNYNJU-GFCCVEGCSA-N

>  <initial_conformation_id>  (241) 
37

>  <minimize_method>  (241) 
MMFF

$$$$

     RDKit          3D

 52 55  0  0  0  0  0  0  0  0999 V2000
    5.6028    0.4774    2.2723 C   0  0  0  0  0  0  0  0  0  0  0  0
    4.2408    0.2180    1.6175 C   0  0  2  0  0  0  0  0  0  0  0  0
    4.3278   -0.9046    0.5864 C   0  0  0  0  0  0  0  0  0  0  0  0
    3.8305   -2.1938    0.8932 C   0  0  0  0  0  0  0  0  0  0  0  0
    3.8946   -3.2456   -0.0338 C   0  0  0  0  0  0  0  0  0  0  0  0
    4.4735   -3.0475   -1.2819 C   0  0  0  0  0  0  0  0  0  0  0  0
    4.9792   -1.7945   -1.6000 C   0  0  0  0  0  0  0  0  0  0  0  0
    4.9144   -0.7283   -0.6894 C   0  0  0  0  0  0  0  0  0  0  0  0
    5.5857    0.7799   -1.2164 Cl  0  0  0  0  0  0  0  0  0  0  0  0
    5.5390   -1.6277   -2.8093 F   0  0  0  0  0  0  0  0  0  0  0  0
    3.1192   -2.5787    2.4240 Cl  0  0  0  0  0  0  0  0  0  0  0  0
    3.7795    1.4583    1.0453 O   0  0  0  0  0  0  0  0  0  0  0  0
    2.4234    1.6123    1.1871 C   0  0  0  0  0  0  0  0  0  0  0  0
    1.5644    1.0785    0.2272 C   0  0  0  0  0  0  0  0  0  0  0  0
    0.1856    1.2560    0.3590 C   0  0  0  0  0  0  0  0  0  0  0  0
   -0.2412    1.9885    1.4656 C   0  0  0  0  0  0  0  0  0  0  0  0
    0.5783    2.5382    2.3998 N   0  0  0  0  0  0  0  0  0  0  0  0
    1.8995    2.3660    2.2432 C   0  0  0  0  0  0  0  0  0  0  0  0
    2.7484    2.9603    3.1909 N   0  0  0  0  0  0  0  0  0  0  0  0
   -0.7369    0.7145   -0.6270 C   0  0  0  0  0  0  0  0  0  0  0  0
   -0.4942    0.1093   -1.8839 C   0  0  0  0  0  0  0  0  0  0  0  0
   -1.6126   -0.2507   -2.5151 N   0  0  0  0  0  0  0  0  0  0  0  0
   -2.5921    0.1386   -1.6764 N   0  0  0  0  0  0  0  0  0  0  0  0
   -2.1143    0.7026   -0.5244 C   0  0  0  0  0  0  0  0  0  0  0  0
   -3.9818   -0.0837   -2.0540 C   0  0  0  0  0  0  0  0  0  0  0  0
   -4.8379    1.1849   -1.9433 C   0  0  0  0  0  0  0  0  0  0  0  0
   -6.2844    0.8825   -2.3247 C   0  0  0  0  0  0  0  0  0  0  0  0
   -6.8407   -0.2071   -1.5203 N   0  0  0  0  0  0  0  0  0  0  0  0
   -6.0606   -1.4368   -1.6671 C   0  0  0  0  0  0  0  0  0  0  0  0
   -4.6052   -1.2342   -1.2559 C   0  0  0  0  0  0  0  0  0  0  0  0
    6.3468    0.8304    1.5518 H   0  0  0  0  0  0  0  0  0  0  0  0
    5.5133    1.2656    3.0288 H   0  0  0  0  0  0  0  0  0  0  0  0
    5.9970   -0.4254    2.7565 H   0  0  0  0  0  0  0  0  0  0  0  0
    3.5653   -0.0509    2.4357 H   0  0  0  0  0  0  0  0  0  0  0  0
    3.5005   -4.2281    0.2176 H   0  0  0  0  0  0  0  0  0  0  0  0
    4.5422   -3.8602   -2.0007 H   0  0  0  0  0  0  0  0  0  0  0  0
    1.9842    0.5419   -0.6165 H   0  0  0  0  0  0  0  0  0  0  0  0
   -1.2929    2.1857    1.6512 H   0  0  0  0  0  0  0  0  0  0  0  0
    3.4209    3.5359    2.6876 H   0  0  0  0  0  0  0  0  0  0  0  0
    3.2760    2.2352    3.6658 H   0  0  0  0  0  0  0  0  0  0  0  0
    0.4521   -0.0778   -2.3744 H   0  0  0  0  0  0  0  0  0  0  0  0
   -2.7911    1.0432    0.2467 H   0  0  0  0  0  0  0  0  0  0  0  0
   -3.9606   -0.3770   -3.1149 H   0  0  0  0  0  0  0  0  0  0  0  0
   -4.8109    1.5850   -0.9216 H   0  0  0  0  0  0  0  0  0  0  0  0
   -4.4390    1.9683   -2.5988 H   0  0  0  0  0  0  0  0  0  0  0  0
   -6.3534    0.6270   -3.3896 H   0  0  0  0  0  0  0  0  0  0  0  0
   -6.8953    1.7801   -2.1803 H   0  0  0  0  0  0  0  0  0  0  0  0
   -6.8669    0.0674   -0.5368 H   0  0  0  0  0  0  0  0  0  0  0  0
   -6.1176   -1.7883   -2.7057 H   0  0  0  0  0  0  0  0  0  0  0  0
   -6.5120   -2.2214   -1.0484 H   0  0  0  0  0  0  0  0  0  0  0  0
   -4.5509   -1.0295   -0.1782 H   0  0  0  0  0  0  0  0  0  0  0  0
   -4.0430   -2.1606   -1.4269 H   0  0  0  0  0  0  0  0  0  0  0  0
  1  2  1  0
  2  3  1  0
  3  4  2  0
  4  5  1  0
  5  6  2  0
  6  7  1  0
  7  8  2  0
  8  9  1  0
  7 10  1  0
  4 11  1  0
  2 12  1  0
 12 13  1  0
 13 14  2  0
 14 15  1  0
 15 16  2  0
 16 17  1  0
 17 18  2  0
 18 19  1  0
 15 20  1  0
 20 21  1  0
 21 22  2  0
 22 23  1  0
 23 24  1  0
 23 25  1  0
 25 26  1  0
 26 27  1  0
 27 28  1  0
 28 29  1  0
 29 30  1  0
  8  3  1  0
 18 13  1  0
 24 20  2  0
 30 25  1  0
  1 31  1  0
  1 32  1  0
  1 33  1  0
  2 34  1  1
  5 35  1  0
  6 36  1  0
 14 37  1  0
 16 38  1  0
 19 39  1  0
 19 40  1  0
 21 41  1  0
 24 42  1  0
 25 43  1  0
 26 44  1  0
 26 45  1  0
 27 46  1  0
 27 47  1  0
 28 48  1  0
 29 49  1  0
 29 50  1  0
 30 51  1  0
 30 52  1  0
M  END
>  <energy_abs>  (242) 
35.31423309220138

>  <SMILES>  (242) 
C[C@H](c1c(ccc(c1Cl)F)Cl)Oc2cc(cnc2N)c3cnn(c3)C4CCNCC4

>  <cluster_no>  (242) 
242

>  <fda_drugs_id>  (242) 
KTEIFNKAUNYNJU-GFCCVEGCSA-N

>  <initial_conformation_id>  (242) 
36

>  <minimize_method>  (242) 
MMFF

$$$$

     RDKit          3D

 52 55  0  0  0  0  0  0  0  0999 V2000
    3.2995    0.5140   -1.5764 C   0  0  0  0  0  0  0  0  0  0  0  0
    3.7187    0.2279   -0.1283 C   0  0  2  0  0  0  0  0  0  0  0  0
    5.0875   -0.4463   -0.0396 C   0  0  0  0  0  0  0  0  0  0  0  0
    6.1948    0.2372    0.5178 C   0  0  0  0  0  0  0  0  0  0  0  0
    7.4579   -0.3666    0.6119 C   0  0  0  0  0  0  0  0  0  0  0  0
    7.6511   -1.6674    0.1649 C   0  0  0  0  0  0  0  0  0  0  0  0
    6.5829   -2.3553   -0.3910 C   0  0  0  0  0  0  0  0  0  0  0  0
    5.3138   -1.7678   -0.4982 C   0  0  0  0  0  0  0  0  0  0  0  0
    4.0659   -2.7483   -1.2003 Cl  0  0  0  0  0  0  0  0  0  0  0  0
    6.7933   -3.6078   -0.8220 F   0  0  0  0  0  0  0  0  0  0  0  0
    6.0823    1.8506    1.1448 Cl  0  0  0  0  0  0  0  0  0  0  0  0
    2.7689   -0.6169    0.5491 O   0  0  0  0  0  0  0  0  0  0  0  0
    1.7183    0.0885    1.0759 C   0  0  0  0  0  0  0  0  0  0  0  0
    0.5159    0.1104    0.3698 C   0  0  0  0  0  0  0  0  0  0  0  0
   -0.5800    0.7930    0.8980 C   0  0  0  0  0  0  0  0  0  0  0  0
   -0.3929    1.4151    2.1317 C   0  0  0  0  0  0  0  0  0  0  0  0
    0.7590    1.3821    2.8492 N   0  0  0  0  0  0  0  0  0  0  0  0
    1.7929    0.6969    2.3354 C   0  0  0  0  0  0  0  0  0  0  0  0
    2.9587    0.6170    3.1117 N   0  0  0  0  0  0  0  0  0  0  0  0
   -1.8562    0.8512    0.2115 C   0  0  0  0  0  0  0  0  0  0  0  0
   -2.9355    1.7582    0.3322 C   0  0  0  0  0  0  0  0  0  0  0  0
   -3.9631    1.4519   -0.4663 N   0  0  0  0  0  0  0  0  0  0  0  0
   -3.5582    0.3370   -1.1004 N   0  0  0  0  0  0  0  0  0  0  0  0
   -2.2999   -0.0613   -0.7278 C   0  0  0  0  0  0  0  0  0  0  0  0
   -4.4160   -0.3365   -2.0739 C   0  0  0  0  0  0  0  0  0  0  0  0
   -4.4833    0.4219   -3.4069 C   0  0  0  0  0  0  0  0  0  0  0  0
   -5.5343    1.5298   -3.4021 C   0  0  0  0  0  0  0  0  0  0  0  0
   -6.8470    1.0184   -3.0086 N   0  0  0  0  0  0  0  0  0  0  0  0
   -6.7993    0.4827   -1.6467 C   0  0  0  0  0  0  0  0  0  0  0  0
   -5.8109   -0.6771   -1.5267 C   0  0  0  0  0  0  0  0  0  0  0  0
    2.4399    1.1926   -1.5870 H   0  0  0  0  0  0  0  0  0  0  0  0
    4.1052    0.9916   -2.1429 H   0  0  0  0  0  0  0  0  0  0  0  0
    2.9822   -0.3851   -2.1090 H   0  0  0  0  0  0  0  0  0  0  0  0
    3.7476    1.1977    0.3755 H   0  0  0  0  0  0  0  0  0  0  0  0
    8.2968    0.1765    1.0488 H   0  0  0  0  0  0  0  0  0  0  0  0
    8.6224   -2.1470    0.2381 H   0  0  0  0  0  0  0  0  0  0  0  0
    0.4547   -0.4031   -0.5843 H   0  0  0  0  0  0  0  0  0  0  0  0
   -1.1917    1.9676    2.6204 H   0  0  0  0  0  0  0  0  0  0  0  0
    3.7226    1.0861    2.6385 H   0  0  0  0  0  0  0  0  0  0  0  0
    3.2069   -0.3649    3.2014 H   0  0  0  0  0  0  0  0  0  0  0  0
   -3.0189    2.6302    0.9670 H   0  0  0  0  0  0  0  0  0  0  0  0
   -1.8507   -0.9533   -1.1454 H   0  0  0  0  0  0  0  0  0  0  0  0
   -3.9093   -1.2922   -2.2677 H   0  0  0  0  0  0  0  0  0  0  0  0
   -4.7358   -0.2946   -4.2004 H   0  0  0  0  0  0  0  0  0  0  0  0
   -3.5044    0.8435   -3.6705 H   0  0  0  0  0  0  0  0  0  0  0  0
   -5.2379    2.3586   -2.7509 H   0  0  0  0  0  0  0  0  0  0  0  0
   -5.6141    1.9496   -4.4113 H   0  0  0  0  0  0  0  0  0  0  0  0
   -7.1471    0.2913   -3.6579 H   0  0  0  0  0  0  0  0  0  0  0  0
   -6.5666    1.2832   -0.9334 H   0  0  0  0  0  0  0  0  0  0  0  0
   -7.8010    0.1231   -1.3799 H   0  0  0  0  0  0  0  0  0  0  0  0
   -5.7525   -1.0073   -0.4811 H   0  0  0  0  0  0  0  0  0  0  0  0
   -6.2071   -1.5272   -2.0989 H   0  0  0  0  0  0  0  0  0  0  0  0
  1  2  1  0
  2  3  1  0
  3  4  2  0
  4  5  1  0
  5  6  2  0
  6  7  1  0
  7  8  2  0
  8  9  1  0
  7 10  1  0
  4 11  1  0
  2 12  1  0
 12 13  1  0
 13 14  2  0
 14 15  1  0
 15 16  2  0
 16 17  1  0
 17 18  2  0
 18 19  1  0
 15 20  1  0
 20 21  1  0
 21 22  2  0
 22 23  1  0
 23 24  1  0
 23 25  1  0
 25 26  1  0
 26 27  1  0
 27 28  1  0
 28 29  1  0
 29 30  1  0
  8  3  1  0
 18 13  1  0
 24 20  2  0
 30 25  1  0
  1 31  1  0
  1 32  1  0
  1 33  1  0
  2 34  1  1
  5 35  1  0
  6 36  1  0
 14 37  1  0
 16 38  1  0
 19 39  1  0
 19 40  1  0
 21 41  1  0
 24 42  1  0
 25 43  1  0
 26 44  1  0
 26 45  1  0
 27 46  1  0
 27 47  1  0
 28 48  1  0
 29 49  1  0
 29 50  1  0
 30 51  1  0
 30 52  1  0
M  END
>  <energy_abs>  (243) 
36.02820499713898

>  <SMILES>  (243) 
C[C@H](c1c(ccc(c1Cl)F)Cl)Oc2cc(cnc2N)c3cnn(c3)C4CCNCC4

>  <cluster_no>  (243) 
243

>  <fda_drugs_id>  (243) 
KTEIFNKAUNYNJU-GFCCVEGCSA-N

>  <initial_conformation_id>  (243) 
35

>  <minimize_method>  (243) 
MMFF

$$$$

     RDKit          3D

 52 55  0  0  0  0  0  0  0  0999 V2000
    3.2528   -0.9312   -1.9299 C   0  0  0  0  0  0  0  0  0  0  0  0
    3.5896   -0.5135   -0.4960 C   0  0  2  0  0  0  0  0  0  0  0  0
    4.9895   -0.9732   -0.0961 C   0  0  0  0  0  0  0  0  0  0  0  0
    5.2937   -2.3233    0.1997 C   0  0  0  0  0  0  0  0  0  0  0  0
    6.5904   -2.7171    0.5660 C   0  0  0  0  0  0  0  0  0  0  0  0
    7.6172   -1.7840    0.6391 C   0  0  0  0  0  0  0  0  0  0  0  0
    7.3458   -0.4586    0.3388 C   0  0  0  0  0  0  0  0  0  0  0  0
    6.0572   -0.0473   -0.0281 C   0  0  0  0  0  0  0  0  0  0  0  0
    5.8493    1.6340   -0.3946 Cl  0  0  0  0  0  0  0  0  0  0  0  0
    8.3521    0.4259    0.4062 F   0  0  0  0  0  0  0  0  0  0  0  0
    4.1253   -3.5991    0.1281 Cl  0  0  0  0  0  0  0  0  0  0  0  0
    2.6218   -1.0633    0.4191 O   0  0  0  0  0  0  0  0  0  0  0  0
    1.7232   -0.1241    0.8538 C   0  0  0  0  0  0  0  0  0  0  0  0
    0.4952   -0.0214    0.2030 C   0  0  0  0  0  0  0  0  0  0  0  0
   -0.4403    0.9120    0.6495 C   0  0  0  0  0  0  0  0  0  0  0  0
   -0.0783    1.6871    1.7490 C   0  0  0  0  0  0  0  0  0  0  0  0
    1.1012    1.5853    2.4130 N   0  0  0  0  0  0  0  0  0  0  0  0
    1.9799    0.6671    1.9804 C   0  0  0  0  0  0  0  0  0  0  0  0
    3.1926    0.5585    2.6771 N   0  0  0  0  0  0  0  0  0  0  0  0
   -1.7271    1.0828    0.0029 C   0  0  0  0  0  0  0  0  0  0  0  0
   -2.5840    2.2056   -0.0690 C   0  0  0  0  0  0  0  0  0  0  0  0
   -3.7017    1.9601   -0.7558 N   0  0  0  0  0  0  0  0  0  0  0  0
   -3.5773    0.6703   -1.1193 N   0  0  0  0  0  0  0  0  0  0  0  0
   -2.4074    0.1034   -0.6920 C   0  0  0  0  0  0  0  0  0  0  0  0
   -4.6312    0.0098   -1.8847 C   0  0  0  0  0  0  0  0  0  0  0  0
   -5.8328   -0.3248   -0.9894 C   0  0  0  0  0  0  0  0  0  0  0  0
   -7.0856   -0.5207   -1.8336 C   0  0  0  0  0  0  0  0  0  0  0  0
   -7.4559    0.6761   -2.5856 N   0  0  0  0  0  0  0  0  0  0  0  0
   -6.3365    1.5575   -2.9204 C   0  0  0  0  0  0  0  0  0  0  0  0
   -5.0338    0.7984   -3.1422 C   0  0  0  0  0  0  0  0  0  0  0  0
    4.0095   -0.5745   -2.6364 H   0  0  0  0  0  0  0  0  0  0  0  0
    3.1654   -2.0161   -2.0379 H   0  0  0  0  0  0  0  0  0  0  0  0
    2.2848   -0.5162   -2.2301 H   0  0  0  0  0  0  0  0  0  0  0  0
    3.5280    0.5792   -0.4636 H   0  0  0  0  0  0  0  0  0  0  0  0
    6.8046   -3.7601    0.7937 H   0  0  0  0  0  0  0  0  0  0  0  0
    8.6230   -2.0801    0.9211 H   0  0  0  0  0  0  0  0  0  0  0  0
    0.2878   -0.6636   -0.6467 H   0  0  0  0  0  0  0  0  0  0  0  0
   -0.7491    2.4349    2.1645 H   0  0  0  0  0  0  0  0  0  0  0  0
    3.9506    0.8705    2.0811 H   0  0  0  0  0  0  0  0  0  0  0  0
    3.3472   -0.4236    2.8909 H   0  0  0  0  0  0  0  0  0  0  0  0
   -2.4396    3.1958    0.3444 H   0  0  0  0  0  0  0  0  0  0  0  0
   -2.1775   -0.9318   -0.9015 H   0  0  0  0  0  0  0  0  0  0  0  0
   -4.1869   -0.9336   -2.2313 H   0  0  0  0  0  0  0  0  0  0  0  0
   -6.0129    0.4673   -0.2504 H   0  0  0  0  0  0  0  0  0  0  0  0
   -5.6212   -1.2343   -0.4139 H   0  0  0  0  0  0  0  0  0  0  0  0
   -6.9249   -1.3518   -2.5317 H   0  0  0  0  0  0  0  0  0  0  0  0
   -7.9256   -0.8052   -1.1913 H   0  0  0  0  0  0  0  0  0  0  0  0
   -7.9701    0.4130   -3.4257 H   0  0  0  0  0  0  0  0  0  0  0  0
   -6.5916    2.1257   -3.8221 H   0  0  0  0  0  0  0  0  0  0  0  0
   -6.2136    2.2952   -2.1190 H   0  0  0  0  0  0  0  0  0  0  0  0
   -5.1772    0.0945   -3.9734 H   0  0  0  0  0  0  0  0  0  0  0  0
   -4.2422    1.4872   -3.4605 H   0  0  0  0  0  0  0  0  0  0  0  0
  1  2  1  0
  2  3  1  0
  3  4  2  0
  4  5  1  0
  5  6  2  0
  6  7  1  0
  7  8  2  0
  8  9  1  0
  7 10  1  0
  4 11  1  0
  2 12  1  0
 12 13  1  0
 13 14  2  0
 14 15  1  0
 15 16  2  0
 16 17  1  0
 17 18  2  0
 18 19  1  0
 15 20  1  0
 20 21  1  0
 21 22  2  0
 22 23  1  0
 23 24  1  0
 23 25  1  0
 25 26  1  0
 26 27  1  0
 27 28  1  0
 28 29  1  0
 29 30  1  0
  8  3  1  0
 18 13  1  0
 24 20  2  0
 30 25  1  0
  1 31  1  0
  1 32  1  0
  1 33  1  0
  2 34  1  6
  5 35  1  0
  6 36  1  0
 14 37  1  0
 16 38  1  0
 19 39  1  0
 19 40  1  0
 21 41  1  0
 24 42  1  0
 25 43  1  0
 26 44  1  0
 26 45  1  0
 27 46  1  0
 27 47  1  0
 28 48  1  0
 29 49  1  0
 29 50  1  0
 30 51  1  0
 30 52  1  0
M  END
>  <energy_abs>  (244) 
40.587133439156304

>  <SMILES>  (244) 
C[C@H](c1c(ccc(c1Cl)F)Cl)Oc2cc(cnc2N)c3cnn(c3)C4CCNCC4

>  <cluster_no>  (244) 
244

>  <fda_drugs_id>  (244) 
KTEIFNKAUNYNJU-GFCCVEGCSA-N

>  <initial_conformation_id>  (244) 
34

>  <minimize_method>  (244) 
MMFF

$$$$

     RDKit          3D

 52 55  0  0  0  0  0  0  0  0999 V2000
    3.1997   -3.0108   -0.6843 C   0  0  0  0  0  0  0  0  0  0  0  0
    3.2807   -1.5363   -0.2805 C   0  0  2  0  0  0  0  0  0  0  0  0
    4.7268   -1.0772   -0.1360 C   0  0  0  0  0  0  0  0  0  0  0  0
    5.3220   -0.2705   -1.1337 C   0  0  0  0  0  0  0  0  0  0  0  0
    6.6438    0.1841   -1.0189 C   0  0  0  0  0  0  0  0  0  0  0  0
    7.4084   -0.1562    0.0897 C   0  0  0  0  0  0  0  0  0  0  0  0
    6.8504   -0.9579    1.0740 C   0  0  0  0  0  0  0  0  0  0  0  0
    5.5330   -1.4257    0.9734 C   0  0  0  0  0  0  0  0  0  0  0  0
    4.9703   -2.4349    2.2662 Cl  0  0  0  0  0  0  0  0  0  0  0  0
    7.6103   -1.2798    2.1321 F   0  0  0  0  0  0  0  0  0  0  0  0
    4.4874    0.1993   -2.5779 Cl  0  0  0  0  0  0  0  0  0  0  0  0
    2.5289   -1.3652    0.9383 O   0  0  0  0  0  0  0  0  0  0  0  0
    1.8124   -0.1960    0.9329 C   0  0  0  0  0  0  0  0  0  0  0  0
    0.5575   -0.1659    0.3245 C   0  0  0  0  0  0  0  0  0  0  0  0
   -0.1871    1.0142    0.3438 C   0  0  0  0  0  0  0  0  0  0  0  0
    0.3834    2.1042    1.0002 C   0  0  0  0  0  0  0  0  0  0  0  0
    1.5912    2.0925    1.6216 N   0  0  0  0  0  0  0  0  0  0  0  0
    2.2811    0.9398    1.5963 C   0  0  0  0  0  0  0  0  0  0  0  0
    3.5240    0.9563    2.2285 N   0  0  0  0  0  0  0  0  0  0  0  0
   -1.4898    1.1185   -0.2883 C   0  0  0  0  0  0  0  0  0  0  0  0
   -2.2117    2.2497   -0.7367 C   0  0  0  0  0  0  0  0  0  0  0  0
   -3.4010    1.9350   -1.2542 N   0  0  0  0  0  0  0  0  0  0  0  0
   -3.4535    0.5956   -1.1429 N   0  0  0  0  0  0  0  0  0  0  0  0
   -2.3318    0.0611   -0.5687 C   0  0  0  0  0  0  0  0  0  0  0  0
   -4.6312   -0.1426   -1.5922 C   0  0  0  0  0  0  0  0  0  0  0  0
   -5.7486   -0.0750   -0.5412 C   0  0  0  0  0  0  0  0  0  0  0  0
   -7.1012   -0.3560   -1.1825 C   0  0  0  0  0  0  0  0  0  0  0  0
   -7.4523    0.6196   -2.2119 N   0  0  0  0  0  0  0  0  0  0  0  0
   -6.3069    1.2264   -2.8934 C   0  0  0  0  0  0  0  0  0  0  0  0
   -5.1113    0.2862   -2.9896 C   0  0  0  0  0  0  0  0  0  0  0  0
    2.1529   -3.3032   -0.8274 H   0  0  0  0  0  0  0  0  0  0  0  0
    3.6000   -3.6763    0.0860 H   0  0  0  0  0  0  0  0  0  0  0  0
    3.7425   -3.2015   -1.6165 H   0  0  0  0  0  0  0  0  0  0  0  0
    2.7766   -0.9845   -1.0809 H   0  0  0  0  0  0  0  0  0  0  0  0
    7.0804    0.8092   -1.7952 H   0  0  0  0  0  0  0  0  0  0  0  0
    8.4306    0.1944    0.1933 H   0  0  0  0  0  0  0  0  0  0  0  0
    0.1854   -1.0600   -0.1640 H   0  0  0  0  0  0  0  0  0  0  0  0
   -0.1305    3.0601    1.0670 H   0  0  0  0  0  0  0  0  0  0  0  0
    3.6221    0.1495    2.8385 H   0  0  0  0  0  0  0  0  0  0  0  0
    3.6009    1.8397    2.7242 H   0  0  0  0  0  0  0  0  0  0  0  0
   -1.9219    3.2921   -0.7119 H   0  0  0  0  0  0  0  0  0  0  0  0
   -2.2450   -1.0031   -0.4004 H   0  0  0  0  0  0  0  0  0  0  0  0
   -4.2991   -1.1866   -1.6789 H   0  0  0  0  0  0  0  0  0  0  0  0
   -5.5511   -0.8043    0.2542 H   0  0  0  0  0  0  0  0  0  0  0  0
   -5.7751    0.9084   -0.0520 H   0  0  0  0  0  0  0  0  0  0  0  0
   -7.8830   -0.3546   -0.4160 H   0  0  0  0  0  0  0  0  0  0  0  0
   -7.0916   -1.3604   -1.6230 H   0  0  0  0  0  0  0  0  0  0  0  0
   -8.0884    0.1974   -2.8874 H   0  0  0  0  0  0  0  0  0  0  0  0
   -6.0262    2.1445   -2.3646 H   0  0  0  0  0  0  0  0  0  0  0  0
   -6.6165    1.5351   -3.8984 H   0  0  0  0  0  0  0  0  0  0  0  0
   -5.4142   -0.6073   -3.5520 H   0  0  0  0  0  0  0  0  0  0  0  0
   -4.3067    0.7521   -3.5707 H   0  0  0  0  0  0  0  0  0  0  0  0
  1  2  1  0
  2  3  1  0
  3  4  2  0
  4  5  1  0
  5  6  2  0
  6  7  1  0
  7  8  2  0
  8  9  1  0
  7 10  1  0
  4 11  1  0
  2 12  1  0
 12 13  1  0
 13 14  2  0
 14 15  1  0
 15 16  2  0
 16 17  1  0
 17 18  2  0
 18 19  1  0
 15 20  1  0
 20 21  1  0
 21 22  2  0
 22 23  1  0
 23 24  1  0
 23 25  1  0
 25 26  1  0
 26 27  1  0
 27 28  1  0
 28 29  1  0
 29 30  1  0
  8  3  1  0
 18 13  1  0
 24 20  2  0
 30 25  1  0
  1 31  1  0
  1 32  1  0
  1 33  1  0
  2 34  1  6
  5 35  1  0
  6 36  1  0
 14 37  1  0
 16 38  1  0
 19 39  1  0
 19 40  1  0
 21 41  1  0
 24 42  1  0
 25 43  1  0
 26 44  1  0
 26 45  1  0
 27 46  1  0
 27 47  1  0
 28 48  1  0
 29 49  1  0
 29 50  1  0
 30 51  1  0
 30 52  1  0
M  END
>  <energy_abs>  (245) 
28.39684303323233

>  <SMILES>  (245) 
C[C@H](c1c(ccc(c1Cl)F)Cl)Oc2cc(cnc2N)c3cnn(c3)C4CCNCC4

>  <cluster_no>  (245) 
245

>  <fda_drugs_id>  (245) 
KTEIFNKAUNYNJU-GFCCVEGCSA-N

>  <initial_conformation_id>  (245) 
33

>  <minimize_method>  (245) 
MMFF

$$$$

     RDKit          3D

 52 55  0  0  0  0  0  0  0  0999 V2000
    3.8153   -2.8679   -0.8644 C   0  0  0  0  0  0  0  0  0  0  0  0
    3.6616   -1.4226   -0.3857 C   0  0  2  0  0  0  0  0  0  0  0  0
    5.0071   -0.8375    0.0285 C   0  0  0  0  0  0  0  0  0  0  0  0
    5.6971    0.0411   -0.8396 C   0  0  0  0  0  0  0  0  0  0  0  0
    6.9293    0.6086   -0.4834 C   0  0  0  0  0  0  0  0  0  0  0  0
    7.5107    0.3084    0.7415 C   0  0  0  0  0  0  0  0  0  0  0  0
    6.8615   -0.5650    1.6008 C   0  0  0  0  0  0  0  0  0  0  0  0
    5.6297   -1.1422    1.2604 C   0  0  0  0  0  0  0  0  0  0  0  0
    4.9469   -2.2378    2.4169 Cl  0  0  0  0  0  0  0  0  0  0  0  0
    7.4500   -0.8504    2.7728 F   0  0  0  0  0  0  0  0  0  0  0  0
    5.1019    0.4623   -2.4115 Cl  0  0  0  0  0  0  0  0  0  0  0  0
    2.7053   -1.4109    0.6937 O   0  0  0  0  0  0  0  0  0  0  0  0
    1.7599   -0.4343    0.5219 C   0  0  0  0  0  0  0  0  0  0  0  0
    0.5674   -0.7622   -0.1206 C   0  0  0  0  0  0  0  0  0  0  0  0
   -0.4183    0.2127   -0.2752 C   0  0  0  0  0  0  0  0  0  0  0  0
   -0.1382    1.4766    0.2418 C   0  0  0  0  0  0  0  0  0  0  0  0
    1.0072    1.8146    0.8902 N   0  0  0  0  0  0  0  0  0  0  0  0
    1.9321    0.8516    1.0388 C   0  0  0  0  0  0  0  0  0  0  0  0
    3.0979    1.2189    1.7122 N   0  0  0  0  0  0  0  0  0  0  0  0
   -1.6657   -0.0877   -0.9522 C   0  0  0  0  0  0  0  0  0  0  0  0
   -1.9771   -1.0678   -1.9214 C   0  0  0  0  0  0  0  0  0  0  0  0
   -3.2575   -1.0375   -2.2962 N   0  0  0  0  0  0  0  0  0  0  0  0
   -3.7877   -0.0498   -1.5503 N   0  0  0  0  0  0  0  0  0  0  0  0
   -2.8671    0.5567   -0.7392 C   0  0  0  0  0  0  0  0  0  0  0  0
   -5.2058    0.2684   -1.6943 C   0  0  0  0  0  0  0  0  0  0  0  0
   -5.9624    0.1721   -0.3616 C   0  0  0  0  0  0  0  0  0  0  0  0
   -7.1831    1.0805   -0.3742 C   0  0  0  0  0  0  0  0  0  0  0  0
   -6.8080    2.4849   -0.5163 N   0  0  0  0  0  0  0  0  0  0  0  0
   -5.6977    2.7407   -1.4309 C   0  0  0  0  0  0  0  0  0  0  0  0
   -5.4274    1.6079   -2.4134 C   0  0  0  0  0  0  0  0  0  0  0  0
    2.8521   -3.2494   -1.2217 H   0  0  0  0  0  0  0  0  0  0  0  0
    4.5413   -2.9453   -1.6803 H   0  0  0  0  0  0  0  0  0  0  0  0
    4.1301   -3.5390   -0.0588 H   0  0  0  0  0  0  0  0  0  0  0  0
    3.2433   -0.8651   -1.2314 H   0  0  0  0  0  0  0  0  0  0  0  0
    7.4405    1.2861   -1.1642 H   0  0  0  0  0  0  0  0  0  0  0  0
    8.4634    0.7413    1.0290 H   0  0  0  0  0  0  0  0  0  0  0  0
    0.4210   -1.7760   -0.4792 H   0  0  0  0  0  0  0  0  0  0  0  0
   -0.8441    2.2973    0.1456 H   0  0  0  0  0  0  0  0  0  0  0  0
    3.3002    0.5479    2.4480 H   0  0  0  0  0  0  0  0  0  0  0  0
    2.9524    2.1596    2.0689 H   0  0  0  0  0  0  0  0  0  0  0  0
   -1.3228   -1.8021   -2.3742 H   0  0  0  0  0  0  0  0  0  0  0  0
   -3.1494    1.3629   -0.0773 H   0  0  0  0  0  0  0  0  0  0  0  0
   -5.6087   -0.5123   -2.3558 H   0  0  0  0  0  0  0  0  0  0  0  0
   -6.2697   -0.8666   -0.1889 H   0  0  0  0  0  0  0  0  0  0  0  0
   -5.3257    0.4418    0.4901 H   0  0  0  0  0  0  0  0  0  0  0  0
   -7.7421    0.9601    0.5598 H   0  0  0  0  0  0  0  0  0  0  0  0
   -7.8581    0.7899   -1.1886 H   0  0  0  0  0  0  0  0  0  0  0  0
   -7.6256    3.0334   -0.7841 H   0  0  0  0  0  0  0  0  0  0  0  0
   -5.8979    3.6652   -1.9858 H   0  0  0  0  0  0  0  0  0  0  0  0
   -4.7997    2.9358   -0.8339 H   0  0  0  0  0  0  0  0  0  0  0  0
   -4.5774    1.8627   -3.0576 H   0  0  0  0  0  0  0  0  0  0  0  0
   -6.2968    1.5126   -3.0779 H   0  0  0  0  0  0  0  0  0  0  0  0
  1  2  1  0
  2  3  1  0
  3  4  2  0
  4  5  1  0
  5  6  2  0
  6  7  1  0
  7  8  2  0
  8  9  1  0
  7 10  1  0
  4 11  1  0
  2 12  1  0
 12 13  1  0
 13 14  2  0
 14 15  1  0
 15 16  2  0
 16 17  1  0
 17 18  2  0
 18 19  1  0
 15 20  1  0
 20 21  1  0
 21 22  2  0
 22 23  1  0
 23 24  1  0
 23 25  1  0
 25 26  1  0
 26 27  1  0
 27 28  1  0
 28 29  1  0
 29 30  1  0
  8  3  1  0
 18 13  1  0
 24 20  2  0
 30 25  1  0
  1 31  1  0
  1 32  1  0
  1 33  1  0
  2 34  1  6
  5 35  1  0
  6 36  1  0
 14 37  1  0
 16 38  1  0
 19 39  1  0
 19 40  1  0
 21 41  1  0
 24 42  1  0
 25 43  1  0
 26 44  1  0
 26 45  1  0
 27 46  1  0
 27 47  1  0
 28 48  1  0
 29 49  1  0
 29 50  1  0
 30 51  1  0
 30 52  1  0
M  END
>  <energy_abs>  (246) 
28.701960866956416

>  <SMILES>  (246) 
C[C@H](c1c(ccc(c1Cl)F)Cl)Oc2cc(cnc2N)c3cnn(c3)C4CCNCC4

>  <cluster_no>  (246) 
246

>  <fda_drugs_id>  (246) 
KTEIFNKAUNYNJU-GFCCVEGCSA-N

>  <initial_conformation_id>  (246) 
32

>  <minimize_method>  (246) 
MMFF

$$$$

     RDKit          3D

 52 55  0  0  0  0  0  0  0  0999 V2000
    6.0460   -1.7024   -0.4951 C   0  0  0  0  0  0  0  0  0  0  0  0
    4.7536   -0.9082   -0.7061 C   0  0  2  0  0  0  0  0  0  0  0  0
    4.2645   -0.2770    0.5953 C   0  0  0  0  0  0  0  0  0  0  0  0
    4.3406    1.1238    0.7799 C   0  0  0  0  0  0  0  0  0  0  0  0
    3.8892    1.7344    1.9615 C   0  0  0  0  0  0  0  0  0  0  0  0
    3.3526    0.9661    2.9872 C   0  0  0  0  0  0  0  0  0  0  0  0
    3.2741   -0.4105    2.8313 C   0  0  0  0  0  0  0  0  0  0  0  0
    3.7234   -1.0381    1.6579 C   0  0  0  0  0  0  0  0  0  0  0  0
    3.5663   -2.7641    1.5887 Cl  0  0  0  0  0  0  0  0  0  0  0  0
    2.7489   -1.1336    3.8382 F   0  0  0  0  0  0  0  0  0  0  0  0
    4.9986    2.1884   -0.4144 Cl  0  0  0  0  0  0  0  0  0  0  0  0
    3.7855   -1.7725   -1.3443 O   0  0  0  0  0  0  0  0  0  0  0  0
    2.7243   -1.0797   -1.8768 C   0  0  0  0  0  0  0  0  0  0  0  0
    1.5040   -1.1737   -1.2072 C   0  0  0  0  0  0  0  0  0  0  0  0
    0.3964   -0.4866   -1.6951 C   0  0  0  0  0  0  0  0  0  0  0  0
    0.5719    0.2484   -2.8630 C   0  0  0  0  0  0  0  0  0  0  0  0
    1.7325    0.3091   -3.5638 N   0  0  0  0  0  0  0  0  0  0  0  0
    2.7820   -0.3888   -3.0966 C   0  0  0  0  0  0  0  0  0  0  0  0
    3.9558   -0.3203   -3.8516 N   0  0  0  0  0  0  0  0  0  0  0  0
   -0.8761   -0.5687   -1.0155 C   0  0  0  0  0  0  0  0  0  0  0  0
   -1.4918   -1.6525   -0.3532 C   0  0  0  0  0  0  0  0  0  0  0  0
   -2.6832   -1.3334    0.1569 N   0  0  0  0  0  0  0  0  0  0  0  0
   -2.8429   -0.0416   -0.1863 N   0  0  0  0  0  0  0  0  0  0  0  0
   -1.7730    0.4690   -0.8715 C   0  0  0  0  0  0  0  0  0  0  0  0
   -4.0727    0.6472    0.1824 C   0  0  0  0  0  0  0  0  0  0  0  0
   -3.8349    1.7221    1.2680 C   0  0  0  0  0  0  0  0  0  0  0  0
   -4.6365    2.9920    1.0058 C   0  0  0  0  0  0  0  0  0  0  0  0
   -6.0107    2.6944    0.6188 N   0  0  0  0  0  0  0  0  0  0  0  0
   -6.1038    1.8794   -0.6080 C   0  0  0  0  0  0  0  0  0  0  0  0
   -4.7993    1.2100   -1.0346 C   0  0  0  0  0  0  0  0  0  0  0  0
    5.9117   -2.5599    0.1722 H   0  0  0  0  0  0  0  0  0  0  0  0
    6.4047   -2.1141   -1.4513 H   0  0  0  0  0  0  0  0  0  0  0  0
    6.8299   -1.0640   -0.0736 H   0  0  0  0  0  0  0  0  0  0  0  0
    5.0242   -0.1385   -1.4290 H   0  0  0  0  0  0  0  0  0  0  0  0
    3.9499    2.8159    2.0885 H   0  0  0  0  0  0  0  0  0  0  0  0
    3.0003    1.4322    3.8993 H   0  0  0  0  0  0  0  0  0  0  0  0
    1.4319   -1.7626   -0.2946 H   0  0  0  0  0  0  0  0  0  0  0  0
   -0.2396    0.8148   -3.3061 H   0  0  0  0  0  0  0  0  0  0  0  0
    4.3855   -1.2417   -3.8856 H   0  0  0  0  0  0  0  0  0  0  0  0
    4.6022    0.3407   -3.4369 H   0  0  0  0  0  0  0  0  0  0  0  0
   -1.1285   -2.6637   -0.2325 H   0  0  0  0  0  0  0  0  0  0  0  0
   -1.7474    1.5045   -1.1861 H   0  0  0  0  0  0  0  0  0  0  0  0
   -4.7224   -0.1260    0.6235 H   0  0  0  0  0  0  0  0  0  0  0  0
   -2.7678    2.0015    1.3561 H   0  0  0  0  0  0  0  0  0  0  0  0
   -4.1251    1.3029    2.2540 H   0  0  0  0  0  0  0  0  0  0  0  0
   -4.6503    3.5998    1.9128 H   0  0  0  0  0  0  0  0  0  0  0  0
   -4.1519    3.6020    0.2369 H   0  0  0  0  0  0  0  0  0  0  0  0
   -6.5008    2.1984    1.3884 H   0  0  0  0  0  0  0  0  0  0  0  0
   -6.4566    2.5089   -1.4267 H   0  0  0  0  0  0  0  0  0  0  0  0
   -6.8777    1.1121   -0.4653 H   0  0  0  0  0  0  0  0  0  0  0  0
   -4.1667    1.9365   -1.5615 H   0  0  0  0  0  0  0  0  0  0  0  0
   -5.0146    0.4161   -1.7550 H   0  0  0  0  0  0  0  0  0  0  0  0
  1  2  1  0
  2  3  1  0
  3  4  2  0
  4  5  1  0
  5  6  2  0
  6  7  1  0
  7  8  2  0
  8  9  1  0
  7 10  1  0
  4 11  1  0
  2 12  1  0
 12 13  1  0
 13 14  2  0
 14 15  1  0
 15 16  2  0
 16 17  1  0
 17 18  2  0
 18 19  1  0
 15 20  1  0
 20 21  1  0
 21 22  2  0
 22 23  1  0
 23 24  1  0
 23 25  1  0
 25 26  1  0
 26 27  1  0
 27 28  1  0
 28 29  1  0
 29 30  1  0
  8  3  1  0
 18 13  1  0
 24 20  2  0
 30 25  1  0
  1 31  1  0
  1 32  1  0
  1 33  1  0
  2 34  1  6
  5 35  1  0
  6 36  1  0
 14 37  1  0
 16 38  1  0
 19 39  1  0
 19 40  1  0
 21 41  1  0
 24 42  1  0
 25 43  1  0
 26 44  1  0
 26 45  1  0
 27 46  1  0
 27 47  1  0
 28 48  1  0
 29 49  1  0
 29 50  1  0
 30 51  1  0
 30 52  1  0
M  END
>  <energy_abs>  (247) 
44.23471061091225

>  <SMILES>  (247) 
C[C@H](c1c(ccc(c1Cl)F)Cl)Oc2cc(cnc2N)c3cnn(c3)C4CCNCC4

>  <cluster_no>  (247) 
247

>  <fda_drugs_id>  (247) 
KTEIFNKAUNYNJU-GFCCVEGCSA-N

>  <initial_conformation_id>  (247) 
31

>  <minimize_method>  (247) 
MMFF

$$$$

     RDKit          3D

 52 55  0  0  0  0  0  0  0  0999 V2000
    2.7733   -2.3372    1.6476 C   0  0  0  0  0  0  0  0  0  0  0  0
    3.3294   -1.3256    0.6420 C   0  0  2  0  0  0  0  0  0  0  0  0
    4.8481   -1.4349    0.5292 C   0  0  0  0  0  0  0  0  0  0  0  0
    5.4362   -2.0719   -0.5900 C   0  0  0  0  0  0  0  0  0  0  0  0
    6.8289   -2.1852   -0.7232 C   0  0  0  0  0  0  0  0  0  0  0  0
    7.6687   -1.6800    0.2599 C   0  0  0  0  0  0  0  0  0  0  0  0
    7.1146   -1.0677    1.3751 C   0  0  0  0  0  0  0  0  0  0  0  0
    5.7264   -0.9425    1.5238 C   0  0  0  0  0  0  0  0  0  0  0  0
    5.1744   -0.1730    2.9747 Cl  0  0  0  0  0  0  0  0  0  0  0  0
    7.9503   -0.5970    2.3122 F   0  0  0  0  0  0  0  0  0  0  0  0
    4.5009   -2.7636   -1.8717 Cl  0  0  0  0  0  0  0  0  0  0  0  0
    2.9507    0.0060    1.0425 O   0  0  0  0  0  0  0  0  0  0  0  0
    2.1049    0.5984    0.1423 C   0  0  0  0  0  0  0  0  0  0  0  0
    0.7322    0.3958    0.2641 C   0  0  0  0  0  0  0  0  0  0  0  0
   -0.1371    1.0247   -0.6276 C   0  0  0  0  0  0  0  0  0  0  0  0
    0.4447    1.8410   -1.5947 C   0  0  0  0  0  0  0  0  0  0  0  0
    1.7782    2.0647   -1.7219 N   0  0  0  0  0  0  0  0  0  0  0  0
    2.5940    1.4648   -0.8415 C   0  0  0  0  0  0  0  0  0  0  0  0
    3.9715    1.7027   -0.9681 N   0  0  0  0  0  0  0  0  0  0  0  0
   -1.5731    0.8426   -0.5217 C   0  0  0  0  0  0  0  0  0  0  0  0
   -2.3673    0.3939    0.5606 C   0  0  0  0  0  0  0  0  0  0  0  0
   -3.6689    0.3529    0.2702 N   0  0  0  0  0  0  0  0  0  0  0  0
   -3.7254    0.7831   -1.0014 N   0  0  0  0  0  0  0  0  0  0  0  0
   -2.4930    1.0801   -1.5221 C   0  0  0  0  0  0  0  0  0  0  0  0
   -5.0091    0.8931   -1.6893 C   0  0  0  0  0  0  0  0  0  0  0  0
   -5.7815    2.1316   -1.2175 C   0  0  0  0  0  0  0  0  0  0  0  0
   -7.2711    1.9655   -1.4870 C   0  0  0  0  0  0  0  0  0  0  0  0
   -7.8481    0.8372   -0.7629 N   0  0  0  0  0  0  0  0  0  0  0  0
   -6.9239   -0.2719   -0.5223 C   0  0  0  0  0  0  0  0  0  0  0  0
   -5.8441   -0.3952   -1.5924 C   0  0  0  0  0  0  0  0  0  0  0  0
    3.0706   -2.1106    2.6753 H   0  0  0  0  0  0  0  0  0  0  0  0
    1.6778   -2.3199    1.6364 H   0  0  0  0  0  0  0  0  0  0  0  0
    3.0971   -3.3553    1.4109 H   0  0  0  0  0  0  0  0  0  0  0  0
    2.8611   -1.5542   -0.3205 H   0  0  0  0  0  0  0  0  0  0  0  0
    7.2619   -2.6759   -1.5943 H   0  0  0  0  0  0  0  0  0  0  0  0
    8.7461   -1.7675    0.1681 H   0  0  0  0  0  0  0  0  0  0  0  0
    0.3601   -0.2461    1.0549 H   0  0  0  0  0  0  0  0  0  0  0  0
   -0.1555    2.3799   -2.3229 H   0  0  0  0  0  0  0  0  0  0  0  0
    4.4312    0.8336   -1.2245 H   0  0  0  0  0  0  0  0  0  0  0  0
    4.3256    1.9744   -0.0503 H   0  0  0  0  0  0  0  0  0  0  0  0
   -2.0537    0.0996    1.5536 H   0  0  0  0  0  0  0  0  0  0  0  0
   -2.3886    1.4244   -2.5409 H   0  0  0  0  0  0  0  0  0  0  0  0
   -4.7593    1.0262   -2.7526 H   0  0  0  0  0  0  0  0  0  0  0  0
   -5.4049    3.0211   -1.7354 H   0  0  0  0  0  0  0  0  0  0  0  0
   -5.6245    2.3132   -0.1452 H   0  0  0  0  0  0  0  0  0  0  0  0
   -7.8040    2.8761   -1.1983 H   0  0  0  0  0  0  0  0  0  0  0  0
   -7.4334    1.8297   -2.5632 H   0  0  0  0  0  0  0  0  0  0  0  0
   -8.6901    0.5114   -1.2349 H   0  0  0  0  0  0  0  0  0  0  0  0
   -7.4950   -1.2045   -0.4690 H   0  0  0  0  0  0  0  0  0  0  0  0
   -6.4629   -0.1405    0.4647 H   0  0  0  0  0  0  0  0  0  0  0  0
   -5.2150   -1.2730   -1.3982 H   0  0  0  0  0  0  0  0  0  0  0  0
   -6.3328   -0.5762   -2.5608 H   0  0  0  0  0  0  0  0  0  0  0  0
  1  2  1  0
  2  3  1  0
  3  4  2  0
  4  5  1  0
  5  6  2  0
  6  7  1  0
  7  8  2  0
  8  9  1  0
  7 10  1  0
  4 11  1  0
  2 12  1  0
 12 13  1  0
 13 14  2  0
 14 15  1  0
 15 16  2  0
 16 17  1  0
 17 18  2  0
 18 19  1  0
 15 20  1  0
 20 21  1  0
 21 22  2  0
 22 23  1  0
 23 24  1  0
 23 25  1  0
 25 26  1  0
 26 27  1  0
 27 28  1  0
 28 29  1  0
 29 30  1  0
  8  3  1  0
 18 13  1  0
 24 20  2  0
 30 25  1  0
  1 31  1  0
  1 32  1  0
  1 33  1  0
  2 34  1  6
  5 35  1  0
  6 36  1  0
 14 37  1  0
 16 38  1  0
 19 39  1  0
 19 40  1  0
 21 41  1  0
 24 42  1  0
 25 43  1  0
 26 44  1  0
 26 45  1  0
 27 46  1  0
 27 47  1  0
 28 48  1  0
 29 49  1  0
 29 50  1  0
 30 51  1  0
 30 52  1  0
M  END
>  <energy_abs>  (248) 
40.52907629695671

>  <SMILES>  (248) 
C[C@H](c1c(ccc(c1Cl)F)Cl)Oc2cc(cnc2N)c3cnn(c3)C4CCNCC4

>  <cluster_no>  (248) 
248

>  <fda_drugs_id>  (248) 
KTEIFNKAUNYNJU-GFCCVEGCSA-N

>  <initial_conformation_id>  (248) 
30

>  <minimize_method>  (248) 
MMFF

$$$$

     RDKit          3D

 52 55  0  0  0  0  0  0  0  0999 V2000
    2.6436   -0.1403    2.1419 C   0  0  0  0  0  0  0  0  0  0  0  0
    3.0947   -0.6277    0.7623 C   0  0  2  0  0  0  0  0  0  0  0  0
    4.3410   -1.5047    0.8879 C   0  0  0  0  0  0  0  0  0  0  0  0
    4.2265   -2.9150    0.8434 C   0  0  0  0  0  0  0  0  0  0  0  0
    5.3508   -3.7474    0.9430 C   0  0  0  0  0  0  0  0  0  0  0  0
    6.6165   -3.1986    1.1037 C   0  0  0  0  0  0  0  0  0  0  0  0
    6.7512   -1.8200    1.1782 C   0  0  0  0  0  0  0  0  0  0  0  0
    5.6382   -0.9722    1.0805 C   0  0  0  0  0  0  0  0  0  0  0  0
    5.9487    0.7269    1.2354 Cl  0  0  0  0  0  0  0  0  0  0  0  0
    7.9817   -1.3147    1.3534 F   0  0  0  0  0  0  0  0  0  0  0  0
    2.7012   -3.7241    0.6924 Cl  0  0  0  0  0  0  0  0  0  0  0  0
    3.3783    0.4686   -0.1134 O   0  0  0  0  0  0  0  0  0  0  0  0
    2.3650    1.1556   -0.7266 C   0  0  0  0  0  0  0  0  0  0  0  0
    1.0091    0.8292   -0.6932 C   0  0  0  0  0  0  0  0  0  0  0  0
    0.0830    1.6201   -1.3828 C   0  0  0  0  0  0  0  0  0  0  0  0
    0.5784    2.7143   -2.0833 C   0  0  0  0  0  0  0  0  0  0  0  0
    1.8853    3.0594   -2.1379 N   0  0  0  0  0  0  0  0  0  0  0  0
    2.7571    2.2869   -1.4672 C   0  0  0  0  0  0  0  0  0  0  0  0
    4.1168    2.6503   -1.5296 N   0  0  0  0  0  0  0  0  0  0  0  0
   -1.3343    1.3123   -1.3866 C   0  0  0  0  0  0  0  0  0  0  0  0
   -2.3281    1.5513   -2.3634 C   0  0  0  0  0  0  0  0  0  0  0  0
   -3.5350    1.1229   -1.9875 N   0  0  0  0  0  0  0  0  0  0  0  0
   -3.3274    0.6178   -0.7577 N   0  0  0  0  0  0  0  0  0  0  0  0
   -2.0220    0.7050   -0.3554 C   0  0  0  0  0  0  0  0  0  0  0  0
   -4.4348    0.0530    0.0086 C   0  0  0  0  0  0  0  0  0  0  0  0
   -5.1975   -1.0327   -0.7693 C   0  0  0  0  0  0  0  0  0  0  0  0
   -6.5092   -0.4915   -1.3254 C   0  0  0  0  0  0  0  0  0  0  0  0
   -7.4050    0.0044   -0.2802 N   0  0  0  0  0  0  0  0  0  0  0  0
   -6.7294    0.5853    0.8784 C   0  0  0  0  0  0  0  0  0  0  0  0
   -5.3594    1.1583    0.5390 C   0  0  0  0  0  0  0  0  0  0  0  0
    2.4640   -0.9806    2.8209 H   0  0  0  0  0  0  0  0  0  0  0  0
    3.3841    0.5194    2.6048 H   0  0  0  0  0  0  0  0  0  0  0  0
    1.7193    0.4420    2.0729 H   0  0  0  0  0  0  0  0  0  0  0  0
    2.3013   -1.2218    0.3060 H   0  0  0  0  0  0  0  0  0  0  0  0
    5.2415   -4.8297    0.8990 H   0  0  0  0  0  0  0  0  0  0  0  0
    7.4951   -3.8320    1.1820 H   0  0  0  0  0  0  0  0  0  0  0  0
    0.6506   -0.0401   -0.1567 H   0  0  0  0  0  0  0  0  0  0  0  0
   -0.0757    3.3818   -2.6377 H   0  0  0  0  0  0  0  0  0  0  0  0
    4.4467    2.7699   -0.5741 H   0  0  0  0  0  0  0  0  0  0  0  0
    4.6305    1.8521   -1.8935 H   0  0  0  0  0  0  0  0  0  0  0  0
   -2.2233    2.0121   -3.3374 H   0  0  0  0  0  0  0  0  0  0  0  0
   -1.7103    0.3490    0.6166 H   0  0  0  0  0  0  0  0  0  0  0  0
   -3.9656   -0.4442    0.8691 H   0  0  0  0  0  0  0  0  0  0  0  0
   -4.5893   -1.4565   -1.5773 H   0  0  0  0  0  0  0  0  0  0  0  0
   -5.4235   -1.8654   -0.0892 H   0  0  0  0  0  0  0  0  0  0  0  0
   -7.0246   -1.2783   -1.8879 H   0  0  0  0  0  0  0  0  0  0  0  0
   -6.3132    0.3163   -2.0401 H   0  0  0  0  0  0  0  0  0  0  0  0
   -8.0455   -0.7287    0.0225 H   0  0  0  0  0  0  0  0  0  0  0  0
   -6.6182   -0.1821    1.6551 H   0  0  0  0  0  0  0  0  0  0  0  0
   -7.3667    1.3709    1.2990 H   0  0  0  0  0  0  0  0  0  0  0  0
   -4.9120    1.6172    1.4293 H   0  0  0  0  0  0  0  0  0  0  0  0
   -5.4762    1.9677   -0.1941 H   0  0  0  0  0  0  0  0  0  0  0  0
  1  2  1  0
  2  3  1  0
  3  4  2  0
  4  5  1  0
  5  6  2  0
  6  7  1  0
  7  8  2  0
  8  9  1  0
  7 10  1  0
  4 11  1  0
  2 12  1  0
 12 13  1  0
 13 14  2  0
 14 15  1  0
 15 16  2  0
 16 17  1  0
 17 18  2  0
 18 19  1  0
 15 20  1  0
 20 21  1  0
 21 22  2  0
 22 23  1  0
 23 24  1  0
 23 25  1  0
 25 26  1  0
 26 27  1  0
 27 28  1  0
 28 29  1  0
 29 30  1  0
  8  3  1  0
 18 13  1  0
 24 20  2  0
 30 25  1  0
  1 31  1  0
  1 32  1  0
  1 33  1  0
  2 34  1  6
  5 35  1  0
  6 36  1  0
 14 37  1  0
 16 38  1  0
 19 39  1  0
 19 40  1  0
 21 41  1  0
 24 42  1  0
 25 43  1  0
 26 44  1  0
 26 45  1  0
 27 46  1  0
 27 47  1  0
 28 48  1  0
 29 49  1  0
 29 50  1  0
 30 51  1  0
 30 52  1  0
M  END
>  <energy_abs>  (249) 
39.6266140977347

>  <SMILES>  (249) 
C[C@H](c1c(ccc(c1Cl)F)Cl)Oc2cc(cnc2N)c3cnn(c3)C4CCNCC4

>  <cluster_no>  (249) 
249

>  <fda_drugs_id>  (249) 
KTEIFNKAUNYNJU-GFCCVEGCSA-N

>  <initial_conformation_id>  (249) 
28

>  <minimize_method>  (249) 
MMFF

$$$$

     RDKit          3D

 52 55  0  0  0  0  0  0  0  0999 V2000
    2.5634   -1.9750    1.2473 C   0  0  0  0  0  0  0  0  0  0  0  0
    3.4875   -1.2736    0.2467 C   0  0  2  0  0  0  0  0  0  0  0  0
    4.9540   -1.4147    0.6392 C   0  0  0  0  0  0  0  0  0  0  0  0
    5.8232   -2.2429   -0.1105 C   0  0  0  0  0  0  0  0  0  0  0  0
    7.1750   -2.3875    0.2315 C   0  0  0  0  0  0  0  0  0  0  0  0
    7.6962   -1.7187    1.3298 C   0  0  0  0  0  0  0  0  0  0  0  0
    6.8609   -0.9082    2.0864 C   0  0  0  0  0  0  0  0  0  0  0  0
    5.5077   -0.7484    1.7587 C   0  0  0  0  0  0  0  0  0  0  0  0
    4.5836    0.2940    2.7899 Cl  0  0  0  0  0  0  0  0  0  0  0  0
    7.3838   -0.2793    3.1506 F   0  0  0  0  0  0  0  0  0  0  0  0
    5.2978   -3.1384   -1.4951 Cl  0  0  0  0  0  0  0  0  0  0  0  0
    3.1876    0.1315    0.1375 O   0  0  0  0  0  0  0  0  0  0  0  0
    2.1940    0.3910   -0.7697 C   0  0  0  0  0  0  0  0  0  0  0  0
    0.9043    0.6105   -0.2907 C   0  0  0  0  0  0  0  0  0  0  0  0
   -0.1196    0.8984   -1.1912 C   0  0  0  0  0  0  0  0  0  0  0  0
    0.2263    0.9734   -2.5375 C   0  0  0  0  0  0  0  0  0  0  0  0
    1.4824    0.8022   -3.0223 N   0  0  0  0  0  0  0  0  0  0  0  0
    2.4594    0.5375   -2.1381 C   0  0  0  0  0  0  0  0  0  0  0  0
    3.7646    0.4192   -2.6388 N   0  0  0  0  0  0  0  0  0  0  0  0
   -1.4742    1.1199   -0.7303 C   0  0  0  0  0  0  0  0  0  0  0  0
   -1.9577    1.7191    0.4553 C   0  0  0  0  0  0  0  0  0  0  0  0
   -3.2907    1.7130    0.5293 N   0  0  0  0  0  0  0  0  0  0  0  0
   -3.6713    1.1075   -0.6122 N   0  0  0  0  0  0  0  0  0  0  0  0
   -2.6163    0.7357   -1.4015 C   0  0  0  0  0  0  0  0  0  0  0  0
   -5.0851    0.8935   -0.8971 C   0  0  0  0  0  0  0  0  0  0  0  0
   -5.8649    2.2116   -0.9539 C   0  0  0  0  0  0  0  0  0  0  0  0
   -7.3413    1.9472   -1.2120 C   0  0  0  0  0  0  0  0  0  0  0  0
   -7.9126    1.0359   -0.2198 N   0  0  0  0  0  0  0  0  0  0  0  0
   -7.2084   -0.2464   -0.1961 C   0  0  0  0  0  0  0  0  0  0  0  0
   -5.7246   -0.0754    0.1033 C   0  0  0  0  0  0  0  0  0  0  0  0
    2.8836   -3.0041    1.4303 H   0  0  0  0  0  0  0  0  0  0  0  0
    1.5397   -2.0066    0.8610 H   0  0  0  0  0  0  0  0  0  0  0  0
    2.5122   -1.4518    2.2070 H   0  0  0  0  0  0  0  0  0  0  0  0
    3.3144   -1.7428   -0.7257 H   0  0  0  0  0  0  0  0  0  0  0  0
    7.8302   -3.0257   -0.3603 H   0  0  0  0  0  0  0  0  0  0  0  0
    8.7408   -1.8219    1.6071 H   0  0  0  0  0  0  0  0  0  0  0  0
    0.7122    0.5437    0.7771 H   0  0  0  0  0  0  0  0  0  0  0  0
   -0.5128    1.2033   -3.3008 H   0  0  0  0  0  0  0  0  0  0  0  0
    4.3569    1.0628   -2.1197 H   0  0  0  0  0  0  0  0  0  0  0  0
    4.1160   -0.5143   -2.4708 H   0  0  0  0  0  0  0  0  0  0  0  0
   -1.3925    2.1626    1.2660 H   0  0  0  0  0  0  0  0  0  0  0  0
   -2.7712    0.2231   -2.3409 H   0  0  0  0  0  0  0  0  0  0  0  0
   -5.1253    0.4315   -1.8941 H   0  0  0  0  0  0  0  0  0  0  0  0
   -5.4633    2.8543   -1.7451 H   0  0  0  0  0  0  0  0  0  0  0  0
   -5.7541    2.7643   -0.0146 H   0  0  0  0  0  0  0  0  0  0  0  0
   -7.4840    1.5351   -2.2181 H   0  0  0  0  0  0  0  0  0  0  0  0
   -7.8899    2.8940   -1.1867 H   0  0  0  0  0  0  0  0  0  0  0  0
   -7.8536    1.4669    0.7036 H   0  0  0  0  0  0  0  0  0  0  0  0
   -7.6631   -0.8875    0.5673 H   0  0  0  0  0  0  0  0  0  0  0  0
   -7.3436   -0.7598   -1.1566 H   0  0  0  0  0  0  0  0  0  0  0  0
   -5.2240   -1.0500    0.0573 H   0  0  0  0  0  0  0  0  0  0  0  0
   -5.5998    0.2916    1.1306 H   0  0  0  0  0  0  0  0  0  0  0  0
  1  2  1  0
  2  3  1  0
  3  4  2  0
  4  5  1  0
  5  6  2  0
  6  7  1  0
  7  8  2  0
  8  9  1  0
  7 10  1  0
  4 11  1  0
  2 12  1  0
 12 13  1  0
 13 14  2  0
 14 15  1  0
 15 16  2  0
 16 17  1  0
 17 18  2  0
 18 19  1  0
 15 20  1  0
 20 21  1  0
 21 22  2  0
 22 23  1  0
 23 24  1  0
 23 25  1  0
 25 26  1  0
 26 27  1  0
 27 28  1  0
 28 29  1  0
 29 30  1  0
  8  3  1  0
 18 13  1  0
 24 20  2  0
 30 25  1  0
  1 31  1  0
  1 32  1  0
  1 33  1  0
  2 34  1  6
  5 35  1  0
  6 36  1  0
 14 37  1  0
 16 38  1  0
 19 39  1  0
 19 40  1  0
 21 41  1  0
 24 42  1  0
 25 43  1  0
 26 44  1  0
 26 45  1  0
 27 46  1  0
 27 47  1  0
 28 48  1  0
 29 49  1  0
 29 50  1  0
 30 51  1  0
 30 52  1  0
M  END
>  <energy_abs>  (250) 
35.681337895792055

>  <SMILES>  (250) 
C[C@H](c1c(ccc(c1Cl)F)Cl)Oc2cc(cnc2N)c3cnn(c3)C4CCNCC4

>  <cluster_no>  (250) 
250

>  <fda_drugs_id>  (250) 
KTEIFNKAUNYNJU-GFCCVEGCSA-N

>  <initial_conformation_id>  (250) 
27

>  <minimize_method>  (250) 
MMFF

$$$$

     RDKit          3D

 52 55  0  0  0  0  0  0  0  0999 V2000
    5.2177    1.4240    0.2673 C   0  0  0  0  0  0  0  0  0  0  0  0
    3.9626    0.5472    0.1986 C   0  0  2  0  0  0  0  0  0  0  0  0
    4.0685   -0.6826    1.0964 C   0  0  0  0  0  0  0  0  0  0  0  0
    3.3074   -0.7724    2.2865 C   0  0  0  0  0  0  0  0  0  0  0  0
    3.3913   -1.8906    3.1308 C   0  0  0  0  0  0  0  0  0  0  0  0
    4.2347   -2.9484    2.8133 C   0  0  0  0  0  0  0  0  0  0  0  0
    4.9900   -2.8839    1.6517 C   0  0  0  0  0  0  0  0  0  0  0  0
    4.9216   -1.7727    0.7974 C   0  0  0  0  0  0  0  0  0  0  0  0
    5.9296   -1.8244   -0.6122 Cl  0  0  0  0  0  0  0  0  0  0  0  0
    5.7928   -3.9213    1.3614 F   0  0  0  0  0  0  0  0  0  0  0  0
    2.2180    0.4741    2.8004 Cl  0  0  0  0  0  0  0  0  0  0  0  0
    3.7293    0.1247   -1.1578 O   0  0  0  0  0  0  0  0  0  0  0  0
    2.6955    0.8053   -1.7456 C   0  0  0  0  0  0  0  0  0  0  0  0
    1.3754    0.5160   -1.4000 C   0  0  0  0  0  0  0  0  0  0  0  0
    0.3357    1.2045   -2.0269 C   0  0  0  0  0  0  0  0  0  0  0  0
    0.6974    2.1378   -2.9987 C   0  0  0  0  0  0  0  0  0  0  0  0
    1.9737    2.4151   -3.3740 N   0  0  0  0  0  0  0  0  0  0  0  0
    2.9538    1.7370   -2.7536 C   0  0  0  0  0  0  0  0  0  0  0  0
    4.2609    2.0590   -3.1224 N   0  0  0  0  0  0  0  0  0  0  0  0
   -1.0570    0.9673   -1.6935 C   0  0  0  0  0  0  0  0  0  0  0  0
   -2.2409    1.2211   -2.4250 C   0  0  0  0  0  0  0  0  0  0  0  0
   -3.3459    0.8779   -1.7592 N   0  0  0  0  0  0  0  0  0  0  0  0
   -2.8796    0.4033   -0.5902 N   0  0  0  0  0  0  0  0  0  0  0  0
   -1.5143    0.4397   -0.5028 C   0  0  0  0  0  0  0  0  0  0  0  0
   -3.8002   -0.0669    0.4414 C   0  0  0  0  0  0  0  0  0  0  0  0
   -4.8459   -1.0579   -0.0989 C   0  0  0  0  0  0  0  0  0  0  0  0
   -6.1952   -0.3775   -0.2983 C   0  0  0  0  0  0  0  0  0  0  0  0
   -6.7319    0.1862    0.9415 N   0  0  0  0  0  0  0  0  0  0  0  0
   -5.7213    0.6751    1.8771 C   0  0  0  0  0  0  0  0  0  0  0  0
   -4.4391    1.1159    1.1840 C   0  0  0  0  0  0  0  0  0  0  0  0
    5.4699    1.6785    1.3022 H   0  0  0  0  0  0  0  0  0  0  0  0
    5.0506    2.3589   -0.2804 H   0  0  0  0  0  0  0  0  0  0  0  0
    6.0887    0.9505   -0.1960 H   0  0  0  0  0  0  0  0  0  0  0  0
    3.1354    1.1844    0.5287 H   0  0  0  0  0  0  0  0  0  0  0  0
    2.7980   -1.9390    4.0425 H   0  0  0  0  0  0  0  0  0  0  0  0
    4.3091   -3.8207    3.4574 H   0  0  0  0  0  0  0  0  0  0  0  0
    1.1765   -0.2476   -0.6548 H   0  0  0  0  0  0  0  0  0  0  0  0
   -0.0489    2.7265   -3.5266 H   0  0  0  0  0  0  0  0  0  0  0  0
    4.8017    1.2163   -3.2910 H   0  0  0  0  0  0  0  0  0  0  0  0
    4.2113    2.6735   -3.9302 H   0  0  0  0  0  0  0  0  0  0  0  0
   -2.3493    1.6404   -3.4162 H   0  0  0  0  0  0  0  0  0  0  0  0
   -1.0036    0.1070    0.3900 H   0  0  0  0  0  0  0  0  0  0  0  0
   -3.1743   -0.6241    1.1535 H   0  0  0  0  0  0  0  0  0  0  0  0
   -4.9702   -1.8742    0.6261 H   0  0  0  0  0  0  0  0  0  0  0  0
   -4.5159   -1.5292   -1.0326 H   0  0  0  0  0  0  0  0  0  0  0  0
   -6.9169   -1.0971   -0.7014 H   0  0  0  0  0  0  0  0  0  0  0  0
   -6.1105    0.4210   -1.0449 H   0  0  0  0  0  0  0  0  0  0  0  0
   -7.3403   -0.4863    1.4077 H   0  0  0  0  0  0  0  0  0  0  0  0
   -5.4868   -0.1143    2.6021 H   0  0  0  0  0  0  0  0  0  0  0  0
   -6.1436    1.5114    2.4450 H   0  0  0  0  0  0  0  0  0  0  0  0
   -3.7313    1.5155    1.9211 H   0  0  0  0  0  0  0  0  0  0  0  0
   -4.6625    1.9439    0.4974 H   0  0  0  0  0  0  0  0  0  0  0  0
  1  2  1  0
  2  3  1  0
  3  4  2  0
  4  5  1  0
  5  6  2  0
  6  7  1  0
  7  8  2  0
  8  9  1  0
  7 10  1  0
  4 11  1  0
  2 12  1  0
 12 13  1  0
 13 14  2  0
 14 15  1  0
 15 16  2  0
 16 17  1  0
 17 18  2  0
 18 19  1  0
 15 20  1  0
 20 21  1  0
 21 22  2  0
 22 23  1  0
 23 24  1  0
 23 25  1  0
 25 26  1  0
 26 27  1  0
 27 28  1  0
 28 29  1  0
 29 30  1  0
  8  3  1  0
 18 13  1  0
 24 20  2  0
 30 25  1  0
  1 31  1  0
  1 32  1  0
  1 33  1  0
  2 34  1  1
  5 35  1  0
  6 36  1  0
 14 37  1  0
 16 38  1  0
 19 39  1  0
 19 40  1  0
 21 41  1  0
 24 42  1  0
 25 43  1  0
 26 44  1  0
 26 45  1  0
 27 46  1  0
 27 47  1  0
 28 48  1  0
 29 49  1  0
 29 50  1  0
 30 51  1  0
 30 52  1  0
M  END
>  <energy_abs>  (251) 
29.537437389783314

>  <SMILES>  (251) 
C[C@H](c1c(ccc(c1Cl)F)Cl)Oc2cc(cnc2N)c3cnn(c3)C4CCNCC4

>  <cluster_no>  (251) 
251

>  <fda_drugs_id>  (251) 
KTEIFNKAUNYNJU-GFCCVEGCSA-N

>  <initial_conformation_id>  (251) 
26

>  <minimize_method>  (251) 
MMFF

$$$$

     RDKit          3D

 52 55  0  0  0  0  0  0  0  0999 V2000
    6.1771   -0.0411   -1.4659 C   0  0  0  0  0  0  0  0  0  0  0  0
    4.7653    0.1091   -0.8945 C   0  0  2  0  0  0  0  0  0  0  0  0
    4.4864   -0.9390    0.1813 C   0  0  0  0  0  0  0  0  0  0  0  0
    4.2285   -2.2959   -0.1234 C   0  0  0  0  0  0  0  0  0  0  0  0
    3.9654   -3.2343    0.8868 C   0  0  0  0  0  0  0  0  0  0  0  0
    3.9600   -2.8503    2.2219 C   0  0  0  0  0  0  0  0  0  0  0  0
    4.2266   -1.5290    2.5442 C   0  0  0  0  0  0  0  0  0  0  0  0
    4.4916   -0.5784    1.5492 C   0  0  0  0  0  0  0  0  0  0  0  0
    4.8393    1.0331    2.0842 Cl  0  0  0  0  0  0  0  0  0  0  0  0
    4.2314   -1.1820    3.8404 F   0  0  0  0  0  0  0  0  0  0  0  0
    4.2160   -2.9224   -1.7372 Cl  0  0  0  0  0  0  0  0  0  0  0  0
    3.8262    0.0225   -1.9877 O   0  0  0  0  0  0  0  0  0  0  0  0
    2.7093    0.7851   -1.7607 C   0  0  0  0  0  0  0  0  0  0  0  0
    1.5270    0.1355   -1.4100 C   0  0  0  0  0  0  0  0  0  0  0  0
    0.3696    0.8809   -1.1788 C   0  0  0  0  0  0  0  0  0  0  0  0
    0.4800    2.2617   -1.3422 C   0  0  0  0  0  0  0  0  0  0  0  0
    1.6103    2.9168   -1.7197 N   0  0  0  0  0  0  0  0  0  0  0  0
    2.7034    2.1700   -1.9412 C   0  0  0  0  0  0  0  0  0  0  0  0
    3.8519    2.8596   -2.3339 N   0  0  0  0  0  0  0  0  0  0  0  0
   -0.8715    0.2326   -0.7839 C   0  0  0  0  0  0  0  0  0  0  0  0
   -1.1478   -1.1216   -0.4749 C   0  0  0  0  0  0  0  0  0  0  0  0
   -2.4245   -1.3336   -0.1499 N   0  0  0  0  0  0  0  0  0  0  0  0
   -2.9859   -0.1161   -0.2522 N   0  0  0  0  0  0  0  0  0  0  0  0
   -2.0945    0.8541   -0.6251 C   0  0  0  0  0  0  0  0  0  0  0  0
   -4.4063    0.0426    0.0345 C   0  0  0  0  0  0  0  0  0  0  0  0
   -4.6443    0.9234    1.2658 C   0  0  0  0  0  0  0  0  0  0  0  0
   -6.1387    1.0921    1.5175 C   0  0  0  0  0  0  0  0  0  0  0  0
   -6.8290    1.6247    0.3426 N   0  0  0  0  0  0  0  0  0  0  0  0
   -6.6551    0.7581   -0.8231 C   0  0  0  0  0  0  0  0  0  0  0  0
   -5.1829    0.5742   -1.1754 C   0  0  0  0  0  0  0  0  0  0  0  0
    6.3136   -0.9890   -1.9944 H   0  0  0  0  0  0  0  0  0  0  0  0
    6.3711    0.7493   -2.1999 H   0  0  0  0  0  0  0  0  0  0  0  0
    6.9346    0.0242   -0.6783 H   0  0  0  0  0  0  0  0  0  0  0  0
    4.7225    1.1171   -0.4726 H   0  0  0  0  0  0  0  0  0  0  0  0
    3.7652   -4.2739    0.6334 H   0  0  0  0  0  0  0  0  0  0  0  0
    3.7583   -3.5691    3.0101 H   0  0  0  0  0  0  0  0  0  0  0  0
    1.5324   -0.9458   -1.3214 H   0  0  0  0  0  0  0  0  0  0  0  0
   -0.3630    2.9252   -1.1727 H   0  0  0  0  0  0  0  0  0  0  0  0
    4.2455    2.4405   -3.1701 H   0  0  0  0  0  0  0  0  0  0  0  0
    3.5832    3.8299   -2.4744 H   0  0  0  0  0  0  0  0  0  0  0  0
   -0.4720   -1.9670   -0.4700 H   0  0  0  0  0  0  0  0  0  0  0  0
   -2.4129    1.8798   -0.7434 H   0  0  0  0  0  0  0  0  0  0  0  0
   -4.7845   -0.9649    0.2608 H   0  0  0  0  0  0  0  0  0  0  0  0
   -4.1693    0.4767    2.1478 H   0  0  0  0  0  0  0  0  0  0  0  0
   -4.1837    1.9107    1.1288 H   0  0  0  0  0  0  0  0  0  0  0  0
   -6.5874    0.1341    1.8082 H   0  0  0  0  0  0  0  0  0  0  0  0
   -6.2927    1.7764    2.3593 H   0  0  0  0  0  0  0  0  0  0  0  0
   -6.4779    2.5598    0.1323 H   0  0  0  0  0  0  0  0  0  0  0  0
   -7.1273   -0.2141   -0.6365 H   0  0  0  0  0  0  0  0  0  0  0  0
   -7.1818    1.2013   -1.6752 H   0  0  0  0  0  0  0  0  0  0  0  0
   -4.7674    1.5336   -1.5101 H   0  0  0  0  0  0  0  0  0  0  0  0
   -5.0882   -0.1192   -2.0200 H   0  0  0  0  0  0  0  0  0  0  0  0
  1  2  1  0
  2  3  1  0
  3  4  2  0
  4  5  1  0
  5  6  2  0
  6  7  1  0
  7  8  2  0
  8  9  1  0
  7 10  1  0
  4 11  1  0
  2 12  1  0
 12 13  1  0
 13 14  2  0
 14 15  1  0
 15 16  2  0
 16 17  1  0
 17 18  2  0
 18 19  1  0
 15 20  1  0
 20 21  1  0
 21 22  2  0
 22 23  1  0
 23 24  1  0
 23 25  1  0
 25 26  1  0
 26 27  1  0
 27 28  1  0
 28 29  1  0
 29 30  1  0
  8  3  1  0
 18 13  1  0
 24 20  2  0
 30 25  1  0
  1 31  1  0
  1 32  1  0
  1 33  1  0
  2 34  1  1
  5 35  1  0
  6 36  1  0
 14 37  1  0
 16 38  1  0
 19 39  1  0
 19 40  1  0
 21 41  1  0
 24 42  1  0
 25 43  1  0
 26 44  1  0
 26 45  1  0
 27 46  1  0
 27 47  1  0
 28 48  1  0
 29 49  1  0
 29 50  1  0
 30 51  1  0
 30 52  1  0
M  END
>  <energy_abs>  (252) 
23.639993824513652

>  <SMILES>  (252) 
C[C@H](c1c(ccc(c1Cl)F)Cl)Oc2cc(cnc2N)c3cnn(c3)C4CCNCC4

>  <cluster_no>  (252) 
252

>  <fda_drugs_id>  (252) 
KTEIFNKAUNYNJU-GFCCVEGCSA-N

>  <initial_conformation_id>  (252) 
25

>  <minimize_method>  (252) 
MMFF

$$$$

     RDKit          3D

 52 55  0  0  0  0  0  0  0  0999 V2000
    2.8821    0.4336    2.0881 C   0  0  0  0  0  0  0  0  0  0  0  0
    3.0889   -0.4076    0.8263 C   0  0  2  0  0  0  0  0  0  0  0  0
    4.2066   -1.4296    1.0373 C   0  0  0  0  0  0  0  0  0  0  0  0
    3.8930   -2.7827    1.3115 C   0  0  0  0  0  0  0  0  0  0  0  0
    4.8950   -3.7462    1.4979 C   0  0  0  0  0  0  0  0  0  0  0  0
    6.2344   -3.3872    1.4239 C   0  0  0  0  0  0  0  0  0  0  0  0
    6.5669   -2.0624    1.1821 C   0  0  0  0  0  0  0  0  0  0  0  0
    5.5789   -1.0850    0.9957 C   0  0  0  0  0  0  0  0  0  0  0  0
    6.1384    0.5376    0.7460 Cl  0  0  0  0  0  0  0  0  0  0  0  0
    7.8677   -1.7360    1.1398 F   0  0  0  0  0  0  0  0  0  0  0  0
    2.2629   -3.3522    1.4646 Cl  0  0  0  0  0  0  0  0  0  0  0  0
    3.4142    0.4172   -0.2972 O   0  0  0  0  0  0  0  0  0  0  0  0
    2.4286    1.0182   -1.0335 C   0  0  0  0  0  0  0  0  0  0  0  0
    1.0585    0.9718   -0.7724 C   0  0  0  0  0  0  0  0  0  0  0  0
    0.1618    1.6345   -1.6186 C   0  0  0  0  0  0  0  0  0  0  0  0
    0.7035    2.3256   -2.6980 C   0  0  0  0  0  0  0  0  0  0  0  0
    2.0255    2.3971   -2.9769 N   0  0  0  0  0  0  0  0  0  0  0  0
    2.8668    1.7517   -2.1517 C   0  0  0  0  0  0  0  0  0  0  0  0
    4.2427    1.8340   -2.4436 N   0  0  0  0  0  0  0  0  0  0  0  0
   -1.2715    1.6181   -1.3877 C   0  0  0  0  0  0  0  0  0  0  0  0
   -2.2810    2.5262   -1.7847 C   0  0  0  0  0  0  0  0  0  0  0  0
   -3.4995    2.1496   -1.3924 N   0  0  0  0  0  0  0  0  0  0  0  0
   -3.2841    0.9935   -0.7402 N   0  0  0  0  0  0  0  0  0  0  0  0
   -1.9634    0.6331   -0.7118 C   0  0  0  0  0  0  0  0  0  0  0  0
   -4.3955    0.2469   -0.1643 C   0  0  0  0  0  0  0  0  0  0  0  0
   -5.3162   -0.3294   -1.2437 C   0  0  0  0  0  0  0  0  0  0  0  0
   -6.4671   -1.0989   -0.6042 C   0  0  0  0  0  0  0  0  0  0  0  0
   -7.2052   -0.2677    0.3431 N   0  0  0  0  0  0  0  0  0  0  0  0
   -6.3517    0.2535    1.4080 C   0  0  0  0  0  0  0  0  0  0  0  0
   -5.1965    1.0750    0.8452 C   0  0  0  0  0  0  0  0  0  0  0  0
    2.6566   -0.1985    2.9532 H   0  0  0  0  0  0  0  0  0  0  0  0
    3.7629    1.0366    2.3282 H   0  0  0  0  0  0  0  0  0  0  0  0
    2.0574    1.1413    1.9594 H   0  0  0  0  0  0  0  0  0  0  0  0
    2.1685   -0.9460    0.5940 H   0  0  0  0  0  0  0  0  0  0  0  0
    4.6325   -4.7821    1.7041 H   0  0  0  0  0  0  0  0  0  0  0  0
    7.0197   -4.1232    1.5663 H   0  0  0  0  0  0  0  0  0  0  0  0
    0.6682    0.4451    0.0889 H   0  0  0  0  0  0  0  0  0  0  0  0
    0.0778    2.8594   -3.4087 H   0  0  0  0  0  0  0  0  0  0  0  0
    4.5942    0.8851   -2.5364 H   0  0  0  0  0  0  0  0  0  0  0  0
    4.7070    2.2150   -1.6216 H   0  0  0  0  0  0  0  0  0  0  0  0
   -2.1815    3.4497   -2.3408 H   0  0  0  0  0  0  0  0  0  0  0  0
   -1.6458   -0.2834   -0.2358 H   0  0  0  0  0  0  0  0  0  0  0  0
   -3.9398   -0.5938    0.3777 H   0  0  0  0  0  0  0  0  0  0  0  0
   -4.7511   -0.9948   -1.9077 H   0  0  0  0  0  0  0  0  0  0  0  0
   -5.7179    0.4745   -1.8744 H   0  0  0  0  0  0  0  0  0  0  0  0
   -7.1523   -1.4365   -1.3892 H   0  0  0  0  0  0  0  0  0  0  0  0
   -6.0905   -1.9977   -0.1009 H   0  0  0  0  0  0  0  0  0  0  0  0
   -7.9716   -0.8049    0.7490 H   0  0  0  0  0  0  0  0  0  0  0  0
   -6.9544    0.8873    2.0676 H   0  0  0  0  0  0  0  0  0  0  0  0
   -5.9683   -0.5712    2.0208 H   0  0  0  0  0  0  0  0  0  0  0  0
   -4.5462    1.4074    1.6633 H   0  0  0  0  0  0  0  0  0  0  0  0
   -5.5923    1.9825    0.3710 H   0  0  0  0  0  0  0  0  0  0  0  0
  1  2  1  0
  2  3  1  0
  3  4  2  0
  4  5  1  0
  5  6  2  0
  6  7  1  0
  7  8  2  0
  8  9  1  0
  7 10  1  0
  4 11  1  0
  2 12  1  0
 12 13  1  0
 13 14  2  0
 14 15  1  0
 15 16  2  0
 16 17  1  0
 17 18  2  0
 18 19  1  0
 15 20  1  0
 20 21  1  0
 21 22  2  0
 22 23  1  0
 23 24  1  0
 23 25  1  0
 25 26  1  0
 26 27  1  0
 27 28  1  0
 28 29  1  0
 29 30  1  0
  8  3  1  0
 18 13  1  0
 24 20  2  0
 30 25  1  0
  1 31  1  0
  1 32  1  0
  1 33  1  0
  2 34  1  6
  5 35  1  0
  6 36  1  0
 14 37  1  0
 16 38  1  0
 19 39  1  0
 19 40  1  0
 21 41  1  0
 24 42  1  0
 25 43  1  0
 26 44  1  0
 26 45  1  0
 27 46  1  0
 27 47  1  0
 28 48  1  0
 29 49  1  0
 29 50  1  0
 30 51  1  0
 30 52  1  0
M  END
>  <energy_abs>  (253) 
33.74370540458992

>  <SMILES>  (253) 
C[C@H](c1c(ccc(c1Cl)F)Cl)Oc2cc(cnc2N)c3cnn(c3)C4CCNCC4

>  <cluster_no>  (253) 
253

>  <fda_drugs_id>  (253) 
KTEIFNKAUNYNJU-GFCCVEGCSA-N

>  <initial_conformation_id>  (253) 
24

>  <minimize_method>  (253) 
MMFF

$$$$

     RDKit          3D

 52 55  0  0  0  0  0  0  0  0999 V2000
    2.8303   -2.6682    0.8707 C   0  0  0  0  0  0  0  0  0  0  0  0
    3.4520   -1.3489    0.4043 C   0  0  2  0  0  0  0  0  0  0  0  0
    4.9542   -1.3305    0.6849 C   0  0  0  0  0  0  0  0  0  0  0  0
    5.4862   -1.1288    1.9837 C   0  0  0  0  0  0  0  0  0  0  0  0
    6.8701   -1.1431    2.2158 C   0  0  0  0  0  0  0  0  0  0  0  0
    7.7587   -1.3656    1.1688 C   0  0  0  0  0  0  0  0  0  0  0  0
    7.2608   -1.5751   -0.1103 C   0  0  0  0  0  0  0  0  0  0  0  0
    5.8817   -1.5636   -0.3612 C   0  0  0  0  0  0  0  0  0  0  0  0
    5.3826   -1.8614   -1.9965 Cl  0  0  0  0  0  0  0  0  0  0  0  0
    8.1380   -1.7931   -1.1032 F   0  0  0  0  0  0  0  0  0  0  0  0
    4.5048   -0.8747    3.3921 Cl  0  0  0  0  0  0  0  0  0  0  0  0
    2.8215   -0.2371    1.0726 O   0  0  0  0  0  0  0  0  0  0  0  0
    1.9044    0.4008    0.2790 C   0  0  0  0  0  0  0  0  0  0  0  0
    0.5768   -0.0209    0.2976 C   0  0  0  0  0  0  0  0  0  0  0  0
   -0.3691    0.6450   -0.4832 C   0  0  0  0  0  0  0  0  0  0  0  0
    0.0880    1.7284   -1.2277 C   0  0  0  0  0  0  0  0  0  0  0  0
    1.3700    2.1753   -1.2372 N   0  0  0  0  0  0  0  0  0  0  0  0
    2.2629    1.5220   -0.4757 C   0  0  0  0  0  0  0  0  0  0  0  0
    3.5852    1.9924   -0.4729 N   0  0  0  0  0  0  0  0  0  0  0  0
   -1.7512    0.2017   -0.5147 C   0  0  0  0  0  0  0  0  0  0  0  0
   -2.3167   -1.0562   -0.1911 C   0  0  0  0  0  0  0  0  0  0  0  0
   -3.6441   -1.0780   -0.3198 N   0  0  0  0  0  0  0  0  0  0  0  0
   -3.9441    0.1693   -0.7348 N   0  0  0  0  0  0  0  0  0  0  0  0
   -2.8432    0.9750   -0.8579 C   0  0  0  0  0  0  0  0  0  0  0  0
   -5.3444    0.5329   -0.9182 C   0  0  0  0  0  0  0  0  0  0  0  0
   -5.6521    0.8948   -2.3761 C   0  0  0  0  0  0  0  0  0  0  0  0
   -7.0133    1.5720   -2.4557 C   0  0  0  0  0  0  0  0  0  0  0  0
   -7.0729    2.8228   -1.6987 N   0  0  0  0  0  0  0  0  0  0  0  0
   -6.0867    2.9356   -0.6231 C   0  0  0  0  0  0  0  0  0  0  0  0
   -5.8057    1.6100    0.0772 C   0  0  0  0  0  0  0  0  0  0  0  0
    2.8985   -2.7896    1.9561 H   0  0  0  0  0  0  0  0  0  0  0  0
    1.7640   -2.7062    0.6256 H   0  0  0  0  0  0  0  0  0  0  0  0
    3.3173   -3.5280    0.3988 H   0  0  0  0  0  0  0  0  0  0  0  0
    3.2693   -1.2601   -0.6747 H   0  0  0  0  0  0  0  0  0  0  0  0
    7.2643   -0.9797    3.2195 H   0  0  0  0  0  0  0  0  0  0  0  0
    8.8313   -1.3837    1.3421 H   0  0  0  0  0  0  0  0  0  0  0  0
    0.2930   -0.8514    0.9346 H   0  0  0  0  0  0  0  0  0  0  0  0
   -0.5761    2.2951   -1.8748 H   0  0  0  0  0  0  0  0  0  0  0  0
    4.1923    1.2775   -0.8560 H   0  0  0  0  0  0  0  0  0  0  0  0
    3.8599    2.1332    0.4962 H   0  0  0  0  0  0  0  0  0  0  0  0
   -1.8180   -1.9603    0.1395 H   0  0  0  0  0  0  0  0  0  0  0  0
   -2.9392    2.0142   -1.1335 H   0  0  0  0  0  0  0  0  0  0  0  0
   -5.9147   -0.3782   -0.6813 H   0  0  0  0  0  0  0  0  0  0  0  0
   -5.6422   -0.0116   -2.9945 H   0  0  0  0  0  0  0  0  0  0  0  0
   -4.8855    1.5597   -2.7966 H   0  0  0  0  0  0  0  0  0  0  0  0
   -7.2672    1.7805   -3.5001 H   0  0  0  0  0  0  0  0  0  0  0  0
   -7.7810    0.8866   -2.0762 H   0  0  0  0  0  0  0  0  0  0  0  0
   -8.0196    2.9403   -1.3238 H   0  0  0  0  0  0  0  0  0  0  0  0
   -5.1547    3.3497   -1.0368 H   0  0  0  0  0  0  0  0  0  0  0  0
   -6.4447    3.6662    0.1110 H   0  0  0  0  0  0  0  0  0  0  0  0
   -5.0728    1.7640    0.8801 H   0  0  0  0  0  0  0  0  0  0  0  0
   -6.7285    1.2678    0.5699 H   0  0  0  0  0  0  0  0  0  0  0  0
  1  2  1  0
  2  3  1  0
  3  4  2  0
  4  5  1  0
  5  6  2  0
  6  7  1  0
  7  8  2  0
  8  9  1  0
  7 10  1  0
  4 11  1  0
  2 12  1  0
 12 13  1  0
 13 14  2  0
 14 15  1  0
 15 16  2  0
 16 17  1  0
 17 18  2  0
 18 19  1  0
 15 20  1  0
 20 21  1  0
 21 22  2  0
 22 23  1  0
 23 24  1  0
 23 25  1  0
 25 26  1  0
 26 27  1  0
 27 28  1  0
 28 29  1  0
 29 30  1  0
  8  3  1  0
 18 13  1  0
 24 20  2  0
 30 25  1  0
  1 31  1  0
  1 32  1  0
  1 33  1  0
  2 34  1  6
  5 35  1  0
  6 36  1  0
 14 37  1  0
 16 38  1  0
 19 39  1  0
 19 40  1  0
 21 41  1  0
 24 42  1  0
 25 43  1  0
 26 44  1  0
 26 45  1  0
 27 46  1  0
 27 47  1  0
 28 48  1  0
 29 49  1  0
 29 50  1  0
 30 51  1  0
 30 52  1  0
M  END
>  <energy_abs>  (254) 
41.41099329424906

>  <SMILES>  (254) 
C[C@H](c1c(ccc(c1Cl)F)Cl)Oc2cc(cnc2N)c3cnn(c3)C4CCNCC4

>  <cluster_no>  (254) 
254

>  <fda_drugs_id>  (254) 
KTEIFNKAUNYNJU-GFCCVEGCSA-N

>  <initial_conformation_id>  (254) 
23

>  <minimize_method>  (254) 
MMFF

$$$$

     RDKit          3D

 52 55  0  0  0  0  0  0  0  0999 V2000
    5.7681   -0.2876    0.1104 C   0  0  0  0  0  0  0  0  0  0  0  0
    4.2979    0.1087    0.2740 C   0  0  2  0  0  0  0  0  0  0  0  0
    3.4164   -1.1254    0.4530 C   0  0  0  0  0  0  0  0  0  0  0  0
    2.9284   -1.4722    1.7340 C   0  0  0  0  0  0  0  0  0  0  0  0
    2.1129   -2.5953    1.9290 C   0  0  0  0  0  0  0  0  0  0  0  0
    1.7604   -3.4008    0.8557 C   0  0  0  0  0  0  0  0  0  0  0  0
    2.2349   -3.0877   -0.4078 C   0  0  0  0  0  0  0  0  0  0  0  0
    3.0590   -1.9741   -0.6210 C   0  0  0  0  0  0  0  0  0  0  0  0
    3.5864   -1.7005   -2.2479 Cl  0  0  0  0  0  0  0  0  0  0  0  0
    1.8631   -3.8661   -1.4328 F   0  0  0  0  0  0  0  0  0  0  0  0
    3.2911   -0.5479    3.1528 Cl  0  0  0  0  0  0  0  0  0  0  0  0
    3.9267    0.9153   -0.8643 O   0  0  0  0  0  0  0  0  0  0  0  0
    2.9686    1.8418   -0.5326 C   0  0  0  0  0  0  0  0  0  0  0  0
    1.6205    1.4955   -0.6213 C   0  0  0  0  0  0  0  0  0  0  0  0
    0.6400    2.4298   -0.2839 C   0  0  0  0  0  0  0  0  0  0  0  0
    1.0949    3.6901    0.0998 C   0  0  0  0  0  0  0  0  0  0  0  0
    2.4002    4.0639    0.1533 N   0  0  0  0  0  0  0  0  0  0  0  0
    3.3236    3.1478   -0.1795 C   0  0  0  0  0  0  0  0  0  0  0  0
    4.6713    3.5411   -0.1478 N   0  0  0  0  0  0  0  0  0  0  0  0
   -0.7790    2.1145   -0.3255 C   0  0  0  0  0  0  0  0  0  0  0  0
   -1.9176    2.9197   -0.0869 C   0  0  0  0  0  0  0  0  0  0  0  0
   -3.0667    2.2519   -0.2164 N   0  0  0  0  0  0  0  0  0  0  0  0
   -2.6778    1.0061   -0.5394 N   0  0  0  0  0  0  0  0  0  0  0  0
   -1.3175    0.8741   -0.6085 C   0  0  0  0  0  0  0  0  0  0  0  0
   -3.6886   -0.0268   -0.7511 C   0  0  0  0  0  0  0  0  0  0  0  0
   -3.5422   -0.7463   -2.1033 C   0  0  0  0  0  0  0  0  0  0  0  0
   -2.9206   -2.1320   -1.9490 C   0  0  0  0  0  0  0  0  0  0  0  0
   -3.6374   -3.0023   -1.0177 N   0  0  0  0  0  0  0  0  0  0  0  0
   -4.3901   -2.3072    0.0251 C   0  0  0  0  0  0  0  0  0  0  0  0
   -3.7421   -0.9954    0.4384 C   0  0  0  0  0  0  0  0  0  0  0  0
    6.3954    0.6084    0.0223 H   0  0  0  0  0  0  0  0  0  0  0  0
    6.1211   -0.8743    0.9669 H   0  0  0  0  0  0  0  0  0  0  0  0
    5.9401   -0.8717   -0.7988 H   0  0  0  0  0  0  0  0  0  0  0  0
    4.2607    0.7496    1.1616 H   0  0  0  0  0  0  0  0  0  0  0  0
    1.7400   -2.8386    2.9205 H   0  0  0  0  0  0  0  0  0  0  0  0
    1.1196   -4.2698    0.9946 H   0  0  0  0  0  0  0  0  0  0  0  0
    1.3550    0.5015   -0.9611 H   0  0  0  0  0  0  0  0  0  0  0  0
    0.4103    4.4833    0.3872 H   0  0  0  0  0  0  0  0  0  0  0  0
    5.0796    3.3228   -1.0533 H   0  0  0  0  0  0  0  0  0  0  0  0
    5.1619    2.9843    0.5454 H   0  0  0  0  0  0  0  0  0  0  0  0
   -1.9655    3.9675    0.1787 H   0  0  0  0  0  0  0  0  0  0  0  0
   -0.8651   -0.0766   -0.8433 H   0  0  0  0  0  0  0  0  0  0  0  0
   -4.6466    0.5130   -0.7907 H   0  0  0  0  0  0  0  0  0  0  0  0
   -4.5393   -0.8647   -2.5486 H   0  0  0  0  0  0  0  0  0  0  0  0
   -2.9581   -0.1525   -2.8178 H   0  0  0  0  0  0  0  0  0  0  0  0
   -2.8716   -2.6225   -2.9302 H   0  0  0  0  0  0  0  0  0  0  0  0
   -1.8811   -2.0463   -1.6032 H   0  0  0  0  0  0  0  0  0  0  0  0
   -4.2611   -3.6343   -1.5230 H   0  0  0  0  0  0  0  0  0  0  0  0
   -5.4088   -2.1221   -0.3292 H   0  0  0  0  0  0  0  0  0  0  0  0
   -4.4711   -2.9670    0.8944 H   0  0  0  0  0  0  0  0  0  0  0  0
   -2.7392   -1.1931    0.8373 H   0  0  0  0  0  0  0  0  0  0  0  0
   -4.3102   -0.5403    1.2603 H   0  0  0  0  0  0  0  0  0  0  0  0
  1  2  1  0
  2  3  1  0
  3  4  2  0
  4  5  1  0
  5  6  2  0
  6  7  1  0
  7  8  2  0
  8  9  1  0
  7 10  1  0
  4 11  1  0
  2 12  1  0
 12 13  1  0
 13 14  2  0
 14 15  1  0
 15 16  2  0
 16 17  1  0
 17 18  2  0
 18 19  1  0
 15 20  1  0
 20 21  1  0
 21 22  2  0
 22 23  1  0
 23 24  1  0
 23 25  1  0
 25 26  1  0
 26 27  1  0
 27 28  1  0
 28 29  1  0
 29 30  1  0
  8  3  1  0
 18 13  1  0
 24 20  2  0
 30 25  1  0
  1 31  1  0
  1 32  1  0
  1 33  1  0
  2 34  1  1
  5 35  1  0
  6 36  1  0
 14 37  1  0
 16 38  1  0
 19 39  1  0
 19 40  1  0
 21 41  1  0
 24 42  1  0
 25 43  1  0
 26 44  1  0
 26 45  1  0
 27 46  1  0
 27 47  1  0
 28 48  1  0
 29 49  1  0
 29 50  1  0
 30 51  1  0
 30 52  1  0
M  END
>  <energy_abs>  (255) 
39.48199468721968

>  <SMILES>  (255) 
C[C@H](c1c(ccc(c1Cl)F)Cl)Oc2cc(cnc2N)c3cnn(c3)C4CCNCC4

>  <cluster_no>  (255) 
255

>  <fda_drugs_id>  (255) 
KTEIFNKAUNYNJU-GFCCVEGCSA-N

>  <initial_conformation_id>  (255) 
22

>  <minimize_method>  (255) 
MMFF

$$$$

     RDKit          3D

 52 55  0  0  0  0  0  0  0  0999 V2000
    2.7997   -2.7532    0.3189 C   0  0  0  0  0  0  0  0  0  0  0  0
    3.4301   -1.3608    0.2411 C   0  0  2  0  0  0  0  0  0  0  0  0
    4.9225   -1.4112    0.5565 C   0  0  0  0  0  0  0  0  0  0  0  0
    5.4209   -1.5615    1.8713 C   0  0  0  0  0  0  0  0  0  0  0  0
    6.7999   -1.6002    2.1293 C   0  0  0  0  0  0  0  0  0  0  0  0
    7.7158   -1.5024    1.0900 C   0  0  0  0  0  0  0  0  0  0  0  0
    7.2500   -1.3757   -0.2082 C   0  0  0  0  0  0  0  0  0  0  0  0
    5.8770   -1.3344   -0.4844 C   0  0  0  0  0  0  0  0  0  0  0  0
    5.4200   -1.1998   -2.1507 Cl  0  0  0  0  0  0  0  0  0  0  0  0
    8.1501   -1.2930   -1.1997 F   0  0  0  0  0  0  0  0  0  0  0  0
    4.4027   -1.7271    3.2624 Cl  0  0  0  0  0  0  0  0  0  0  0  0
    2.7643   -0.4692    1.1570 O   0  0  0  0  0  0  0  0  0  0  0  0
    1.9704    0.4415    0.5090 C   0  0  0  0  0  0  0  0  0  0  0  0
    0.6284    0.1345    0.2896 C   0  0  0  0  0  0  0  0  0  0  0  0
   -0.1879    1.0628   -0.3544 C   0  0  0  0  0  0  0  0  0  0  0  0
    0.4040    2.2664   -0.7306 C   0  0  0  0  0  0  0  0  0  0  0  0
    1.7009    2.5967   -0.5021 N   0  0  0  0  0  0  0  0  0  0  0  0
    2.4664    1.6959    0.1329 C   0  0  0  0  0  0  0  0  0  0  0  0
    3.8074    2.0408    0.3702 N   0  0  0  0  0  0  0  0  0  0  0  0
   -1.5813    0.7686   -0.6262 C   0  0  0  0  0  0  0  0  0  0  0  0
   -2.2407   -0.4655   -0.8268 C   0  0  0  0  0  0  0  0  0  0  0  0
   -3.5478   -0.3229   -1.0554 N   0  0  0  0  0  0  0  0  0  0  0  0
   -3.7427    1.0063   -0.9798 N   0  0  0  0  0  0  0  0  0  0  0  0
   -2.5902    1.7036   -0.7360 C   0  0  0  0  0  0  0  0  0  0  0  0
   -5.0775    1.5710   -1.1617 C   0  0  0  0  0  0  0  0  0  0  0  0
   -5.9873    1.2411    0.0305 C   0  0  0  0  0  0  0  0  0  0  0  0
   -7.4530    1.3435   -0.3725 C   0  0  0  0  0  0  0  0  0  0  0  0
   -7.8166    0.4129   -1.4383 N   0  0  0  0  0  0  0  0  0  0  0  0
   -6.7188    0.0517   -2.3345 C   0  0  0  0  0  0  0  0  0  0  0  0
   -5.7017    1.1723   -2.5087 C   0  0  0  0  0  0  0  0  0  0  0  0
    1.7442   -2.7092    0.0308 H   0  0  0  0  0  0  0  0  0  0  0  0
    2.8224   -3.1658    1.3320 H   0  0  0  0  0  0  0  0  0  0  0  0
    3.3048   -3.4571   -0.3500 H   0  0  0  0  0  0  0  0  0  0  0  0
    3.2743   -0.9972   -0.7810 H   0  0  0  0  0  0  0  0  0  0  0  0
    7.1650   -1.7127    3.1479 H   0  0  0  0  0  0  0  0  0  0  0  0
    8.7840   -1.5314    1.2816 H   0  0  0  0  0  0  0  0  0  0  0  0
    0.2342   -0.8158    0.6348 H   0  0  0  0  0  0  0  0  0  0  0  0
   -0.1563    3.0355   -1.2547 H   0  0  0  0  0  0  0  0  0  0  0  0
    4.4073    1.4280   -0.1697 H   0  0  0  0  0  0  0  0  0  0  0  0
    4.0030    1.8718    1.3552 H   0  0  0  0  0  0  0  0  0  0  0  0
   -1.8225   -1.4641   -0.8268 H   0  0  0  0  0  0  0  0  0  0  0  0
   -2.5956    2.7820   -0.6530 H   0  0  0  0  0  0  0  0  0  0  0  0
   -4.9301    2.6596   -1.1890 H   0  0  0  0  0  0  0  0  0  0  0  0
   -5.7755    1.9313    0.8560 H   0  0  0  0  0  0  0  0  0  0  0  0
   -5.7889    0.2338    0.4193 H   0  0  0  0  0  0  0  0  0  0  0  0
   -7.6665    2.3688   -0.6992 H   0  0  0  0  0  0  0  0  0  0  0  0
   -8.0923    1.1493    0.4948 H   0  0  0  0  0  0  0  0  0  0  0  0
   -8.6047    0.7841   -1.9683 H   0  0  0  0  0  0  0  0  0  0  0  0
   -6.2262   -0.8481   -1.9467 H   0  0  0  0  0  0  0  0  0  0  0  0
   -7.1358   -0.2239   -3.3107 H   0  0  0  0  0  0  0  0  0  0  0  0
   -4.9365    0.8794   -3.2369 H   0  0  0  0  0  0  0  0  0  0  0  0
   -6.2131    2.0452   -2.9390 H   0  0  0  0  0  0  0  0  0  0  0  0
  1  2  1  0
  2  3  1  0
  3  4  2  0
  4  5  1  0
  5  6  2  0
  6  7  1  0
  7  8  2  0
  8  9  1  0
  7 10  1  0
  4 11  1  0
  2 12  1  0
 12 13  1  0
 13 14  2  0
 14 15  1  0
 15 16  2  0
 16 17  1  0
 17 18  2  0
 18 19  1  0
 15 20  1  0
 20 21  1  0
 21 22  2  0
 22 23  1  0
 23 24  1  0
 23 25  1  0
 25 26  1  0
 26 27  1  0
 27 28  1  0
 28 29  1  0
 29 30  1  0
  8  3  1  0
 18 13  1  0
 24 20  2  0
 30 25  1  0
  1 31  1  0
  1 32  1  0
  1 33  1  0
  2 34  1  6
  5 35  1  0
  6 36  1  0
 14 37  1  0
 16 38  1  0
 19 39  1  0
 19 40  1  0
 21 41  1  0
 24 42  1  0
 25 43  1  0
 26 44  1  0
 26 45  1  0
 27 46  1  0
 27 47  1  0
 28 48  1  0
 29 49  1  0
 29 50  1  0
 30 51  1  0
 30 52  1  0
M  END
>  <energy_abs>  (256) 
40.7200776954281

>  <SMILES>  (256) 
C[C@H](c1c(ccc(c1Cl)F)Cl)Oc2cc(cnc2N)c3cnn(c3)C4CCNCC4

>  <cluster_no>  (256) 
256

>  <fda_drugs_id>  (256) 
KTEIFNKAUNYNJU-GFCCVEGCSA-N

>  <initial_conformation_id>  (256) 
20

>  <minimize_method>  (256) 
MMFF

$$$$

     RDKit          3D

 52 55  0  0  0  0  0  0  0  0999 V2000
    3.3633   -1.4974   -1.5461 C   0  0  0  0  0  0  0  0  0  0  0  0
    4.1302   -0.4821   -0.6851 C   0  0  2  0  0  0  0  0  0  0  0  0
    5.2076   -1.1429    0.1691 C   0  0  0  0  0  0  0  0  0  0  0  0
    6.5748   -0.8221   -0.0116 C   0  0  0  0  0  0  0  0  0  0  0  0
    7.5784   -1.4511    0.7391 C   0  0  0  0  0  0  0  0  0  0  0  0
    7.2518   -2.4218    1.6808 C   0  0  0  0  0  0  0  0  0  0  0  0
    5.9183   -2.7272    1.8977 C   0  0  0  0  0  0  0  0  0  0  0  0
    4.8980   -2.0952    1.1711 C   0  0  0  0  0  0  0  0  0  0  0  0
    3.2704   -2.5104    1.5942 Cl  0  0  0  0  0  0  0  0  0  0  0  0
    5.6248   -3.6481    2.8290 F   0  0  0  0  0  0  0  0  0  0  0  0
    7.1179    0.3677   -1.1455 Cl  0  0  0  0  0  0  0  0  0  0  0  0
    3.3053    0.3043    0.1939 O   0  0  0  0  0  0  0  0  0  0  0  0
    2.2902    0.9823   -0.4257 C   0  0  0  0  0  0  0  0  0  0  0  0
    0.9931    0.5468   -0.1425 C   0  0  0  0  0  0  0  0  0  0  0  0
   -0.0983    1.2040   -0.7076 C   0  0  0  0  0  0  0  0  0  0  0  0
    0.1895    2.2915   -1.5297 C   0  0  0  0  0  0  0  0  0  0  0  0
    1.4367    2.7495   -1.7991 N   0  0  0  0  0  0  0  0  0  0  0  0
    2.4732    2.1249   -1.2164 C   0  0  0  0  0  0  0  0  0  0  0  0
    3.7380    2.6561   -1.4854 N   0  0  0  0  0  0  0  0  0  0  0  0
   -1.4610    0.7799   -0.4273 C   0  0  0  0  0  0  0  0  0  0  0  0
   -2.0007    0.0393    0.6559 C   0  0  0  0  0  0  0  0  0  0  0  0
   -3.3213   -0.1143    0.5696 N   0  0  0  0  0  0  0  0  0  0  0  0
   -3.6474    0.5302   -0.5660 N   0  0  0  0  0  0  0  0  0  0  0  0
   -2.5608    1.0594   -1.2126 C   0  0  0  0  0  0  0  0  0  0  0  0
   -5.0412    0.7023   -0.9578 C   0  0  0  0  0  0  0  0  0  0  0  0
   -5.8706   -0.5830   -0.8583 C   0  0  0  0  0  0  0  0  0  0  0  0
   -7.3163   -0.3136   -1.2681 C   0  0  0  0  0  0  0  0  0  0  0  0
   -7.9058    0.7648   -0.4785 N   0  0  0  0  0  0  0  0  0  0  0  0
   -7.1509    2.0120   -0.5938 C   0  0  0  0  0  0  0  0  0  0  0  0
   -5.7023    1.8269   -0.1548 C   0  0  0  0  0  0  0  0  0  0  0  0
    4.0291   -2.2605   -1.9591 H   0  0  0  0  0  0  0  0  0  0  0  0
    2.5494   -1.9867   -1.0099 H   0  0  0  0  0  0  0  0  0  0  0  0
    2.8990   -0.9828   -2.3933 H   0  0  0  0  0  0  0  0  0  0  0  0
    4.6065    0.1948   -1.3932 H   0  0  0  0  0  0  0  0  0  0  0  0
    8.6227   -1.1837    0.5904 H   0  0  0  0  0  0  0  0  0  0  0  0
    8.0219   -2.9219    2.2593 H   0  0  0  0  0  0  0  0  0  0  0  0
    0.8572   -0.3102    0.5126 H   0  0  0  0  0  0  0  0  0  0  0  0
   -0.5964    2.8684   -2.0079 H   0  0  0  0  0  0  0  0  0  0  0  0
    4.2439    2.0661   -2.1397 H   0  0  0  0  0  0  0  0  0  0  0  0
    4.2667    2.7223   -0.6207 H   0  0  0  0  0  0  0  0  0  0  0  0
   -1.4870   -0.3810    1.5128 H   0  0  0  0  0  0  0  0  0  0  0  0
   -2.6750    1.5977   -2.1452 H   0  0  0  0  0  0  0  0  0  0  0  0
   -5.0144    1.0039   -2.0140 H   0  0  0  0  0  0  0  0  0  0  0  0
   -5.4438   -1.3647   -1.4981 H   0  0  0  0  0  0  0  0  0  0  0  0
   -5.8548   -0.9758    0.1671 H   0  0  0  0  0  0  0  0  0  0  0  0
   -7.3686   -0.0676   -2.3370 H   0  0  0  0  0  0  0  0  0  0  0  0
   -7.9091   -1.2242   -1.1171 H   0  0  0  0  0  0  0  0  0  0  0  0
   -8.8707    0.9210   -0.7724 H   0  0  0  0  0  0  0  0  0  0  0  0
   -7.6230    2.7708    0.0385 H   0  0  0  0  0  0  0  0  0  0  0  0
   -7.1904    2.3847   -1.6258 H   0  0  0  0  0  0  0  0  0  0  0  0
   -5.1525    2.7670   -0.2932 H   0  0  0  0  0  0  0  0  0  0  0  0
   -5.6677    1.5969    0.9190 H   0  0  0  0  0  0  0  0  0  0  0  0
  1  2  1  0
  2  3  1  0
  3  4  2  0
  4  5  1  0
  5  6  2  0
  6  7  1  0
  7  8  2  0
  8  9  1  0
  7 10  1  0
  4 11  1  0
  2 12  1  0
 12 13  1  0
 13 14  2  0
 14 15  1  0
 15 16  2  0
 16 17  1  0
 17 18  2  0
 18 19  1  0
 15 20  1  0
 20 21  1  0
 21 22  2  0
 22 23  1  0
 23 24  1  0
 23 25  1  0
 25 26  1  0
 26 27  1  0
 27 28  1  0
 28 29  1  0
 29 30  1  0
  8  3  1  0
 18 13  1  0
 24 20  2  0
 30 25  1  0
  1 31  1  0
  1 32  1  0
  1 33  1  0
  2 34  1  6
  5 35  1  0
  6 36  1  0
 14 37  1  0
 16 38  1  0
 19 39  1  0
 19 40  1  0
 21 41  1  0
 24 42  1  0
 25 43  1  0
 26 44  1  0
 26 45  1  0
 27 46  1  0
 27 47  1  0
 28 48  1  0
 29 49  1  0
 29 50  1  0
 30 51  1  0
 30 52  1  0
M  END
>  <energy_abs>  (257) 
38.30605584952181

>  <SMILES>  (257) 
C[C@H](c1c(ccc(c1Cl)F)Cl)Oc2cc(cnc2N)c3cnn(c3)C4CCNCC4

>  <cluster_no>  (257) 
257

>  <fda_drugs_id>  (257) 
KTEIFNKAUNYNJU-GFCCVEGCSA-N

>  <initial_conformation_id>  (257) 
18

>  <minimize_method>  (257) 
MMFF

$$$$

     RDKit          3D

 52 55  0  0  0  0  0  0  0  0999 V2000
    5.8051   -1.1189   -1.6041 C   0  0  0  0  0  0  0  0  0  0  0  0
    4.6243   -0.3185   -1.0513 C   0  0  2  0  0  0  0  0  0  0  0  0
    4.1091   -0.9216    0.2556 C   0  0  0  0  0  0  0  0  0  0  0  0
    4.4391   -0.3221    1.4932 C   0  0  0  0  0  0  0  0  0  0  0  0
    3.9477   -0.8235    2.7063 C   0  0  0  0  0  0  0  0  0  0  0  0
    3.1255   -1.9420    2.7203 C   0  0  0  0  0  0  0  0  0  0  0  0
    2.8160   -2.5667    1.5218 C   0  0  0  0  0  0  0  0  0  0  0  0
    3.3069   -2.0844    0.3005 C   0  0  0  0  0  0  0  0  0  0  0  0
    2.8806   -2.9923   -1.1122 Cl  0  0  0  0  0  0  0  0  0  0  0  0
    2.0202   -3.6459    1.5607 F   0  0  0  0  0  0  0  0  0  0  0  0
    5.4973    1.0406    1.6183 Cl  0  0  0  0  0  0  0  0  0  0  0  0
    3.6067   -0.2655   -2.0775 O   0  0  0  0  0  0  0  0  0  0  0  0
    2.7813    0.8208   -1.9391 C   0  0  0  0  0  0  0  0  0  0  0  0
    1.4757    0.5962   -1.5094 C   0  0  0  0  0  0  0  0  0  0  0  0
    0.5956    1.6706   -1.3853 C   0  0  0  0  0  0  0  0  0  0  0  0
    1.0846    2.9281   -1.7302 C   0  0  0  0  0  0  0  0  0  0  0  0
    2.3417    3.1711   -2.1853 N   0  0  0  0  0  0  0  0  0  0  0  0
    3.1650    2.1144   -2.3032 C   0  0  0  0  0  0  0  0  0  0  0  0
    4.4410    2.3856   -2.8012 N   0  0  0  0  0  0  0  0  0  0  0  0
   -0.7692    1.4880   -0.9362 C   0  0  0  0  0  0  0  0  0  0  0  0
   -1.9511    2.1901   -1.2595 C   0  0  0  0  0  0  0  0  0  0  0  0
   -3.0262    1.7026   -0.6386 N   0  0  0  0  0  0  0  0  0  0  0  0
   -2.5408    0.6834    0.0943 N   0  0  0  0  0  0  0  0  0  0  0  0
   -1.1913    0.5169   -0.0512 C   0  0  0  0  0  0  0  0  0  0  0  0
   -3.4228   -0.1428    0.9159 C   0  0  0  0  0  0  0  0  0  0  0  0
   -3.9110   -1.3622    0.1155 C   0  0  0  0  0  0  0  0  0  0  0  0
   -5.2207   -1.8908    0.6825 C   0  0  0  0  0  0  0  0  0  0  0  0
   -6.2992   -0.9053    0.6033 N   0  0  0  0  0  0  0  0  0  0  0  0
   -5.8614    0.4873    0.7314 C   0  0  0  0  0  0  0  0  0  0  0  0
   -4.5848    0.6395    1.5533 C   0  0  0  0  0  0  0  0  0  0  0  0
    6.6185   -1.1965   -0.8744 H   0  0  0  0  0  0  0  0  0  0  0  0
    6.1958   -0.6339   -2.5056 H   0  0  0  0  0  0  0  0  0  0  0  0
    5.5159   -2.1297   -1.9017 H   0  0  0  0  0  0  0  0  0  0  0  0
    4.9990    0.6947   -0.8851 H   0  0  0  0  0  0  0  0  0  0  0  0
    4.2108   -0.3429    3.6465 H   0  0  0  0  0  0  0  0  0  0  0  0
    2.7352   -2.3369    3.6527 H   0  0  0  0  0  0  0  0  0  0  0  0
    1.1544   -0.4169   -1.2922 H   0  0  0  0  0  0  0  0  0  0  0  0
    0.4655    3.8185   -1.6490 H   0  0  0  0  0  0  0  0  0  0  0  0
    4.4486    3.3659   -3.0716 H   0  0  0  0  0  0  0  0  0  0  0  0
    4.6503    1.7700   -3.5807 H   0  0  0  0  0  0  0  0  0  0  0  0
   -2.0780    3.0287   -1.9314 H   0  0  0  0  0  0  0  0  0  0  0  0
   -0.6638   -0.2654    0.4766 H   0  0  0  0  0  0  0  0  0  0  0  0
   -2.7867   -0.4956    1.7432 H   0  0  0  0  0  0  0  0  0  0  0  0
   -3.1452   -2.1505    0.1339 H   0  0  0  0  0  0  0  0  0  0  0  0
   -4.0535   -1.1080   -0.9439 H   0  0  0  0  0  0  0  0  0  0  0  0
   -5.5246   -2.7897    0.1346 H   0  0  0  0  0  0  0  0  0  0  0  0
   -5.0733   -2.1911    1.7317 H   0  0  0  0  0  0  0  0  0  0  0  0
   -7.0195   -1.1187    1.2902 H   0  0  0  0  0  0  0  0  0  0  0  0
   -6.6693    1.0727    1.1894 H   0  0  0  0  0  0  0  0  0  0  0  0
   -5.7142    0.8991   -0.2746 H   0  0  0  0  0  0  0  0  0  0  0  0
   -4.3394    1.6989    1.6865 H   0  0  0  0  0  0  0  0  0  0  0  0
   -4.7716    0.2431    2.5602 H   0  0  0  0  0  0  0  0  0  0  0  0
  1  2  1  0
  2  3  1  0
  3  4  2  0
  4  5  1  0
  5  6  2  0
  6  7  1  0
  7  8  2  0
  8  9  1  0
  7 10  1  0
  4 11  1  0
  2 12  1  0
 12 13  1  0
 13 14  2  0
 14 15  1  0
 15 16  2  0
 16 17  1  0
 17 18  2  0
 18 19  1  0
 15 20  1  0
 20 21  1  0
 21 22  2  0
 22 23  1  0
 23 24  1  0
 23 25  1  0
 25 26  1  0
 26 27  1  0
 27 28  1  0
 28 29  1  0
 29 30  1  0
  8  3  1  0
 18 13  1  0
 24 20  2  0
 30 25  1  0
  1 31  1  0
  1 32  1  0
  1 33  1  0
  2 34  1  1
  5 35  1  0
  6 36  1  0
 14 37  1  0
 16 38  1  0
 19 39  1  0
 19 40  1  0
 21 41  1  0
 24 42  1  0
 25 43  1  0
 26 44  1  0
 26 45  1  0
 27 46  1  0
 27 47  1  0
 28 48  1  0
 29 49  1  0
 29 50  1  0
 30 51  1  0
 30 52  1  0
M  END
>  <energy_abs>  (258) 
28.598365929437097

>  <SMILES>  (258) 
C[C@H](c1c(ccc(c1Cl)F)Cl)Oc2cc(cnc2N)c3cnn(c3)C4CCNCC4

>  <cluster_no>  (258) 
258

>  <fda_drugs_id>  (258) 
KTEIFNKAUNYNJU-GFCCVEGCSA-N

>  <initial_conformation_id>  (258) 
17

>  <minimize_method>  (258) 
MMFF

$$$$

     RDKit          3D

 52 55  0  0  0  0  0  0  0  0999 V2000
    3.2173    0.3736    1.9742 C   0  0  0  0  0  0  0  0  0  0  0  0
    3.3978   -0.4987    0.7293 C   0  0  2  0  0  0  0  0  0  0  0  0
    4.6927   -1.3060    0.8235 C   0  0  0  0  0  0  0  0  0  0  0  0
    4.6558   -2.6709    1.1990 C   0  0  0  0  0  0  0  0  0  0  0  0
    5.8241   -3.4428    1.2815 C   0  0  0  0  0  0  0  0  0  0  0  0
    7.0605   -2.8732    1.0057 C   0  0  0  0  0  0  0  0  0  0  0  0
    7.1250   -1.5306    0.6611 C   0  0  0  0  0  0  0  0  0  0  0  0
    5.9675   -0.7432    0.5739 C   0  0  0  0  0  0  0  0  0  0  0  0
    6.2041    0.9306    0.1827 Cl  0  0  0  0  0  0  0  0  0  0  0  0
    8.3335   -0.9984    0.4210 F   0  0  0  0  0  0  0  0  0  0  0  0
    3.1838   -3.4871    1.6134 Cl  0  0  0  0  0  0  0  0  0  0  0  0
    3.4293    0.3006   -0.4561 O   0  0  0  0  0  0  0  0  0  0  0  0
    2.2746    0.6542   -1.0982 C   0  0  0  0  0  0  0  0  0  0  0  0
    0.9760    0.4346   -0.6372 C   0  0  0  0  0  0  0  0  0  0  0  0
   -0.1177    0.8786   -1.3892 C   0  0  0  0  0  0  0  0  0  0  0  0
    0.1581    1.5324   -2.5860 C   0  0  0  0  0  0  0  0  0  0  0  0
    1.4029    1.7686   -3.0632 N   0  0  0  0  0  0  0  0  0  0  0  0
    2.4348    1.3318   -2.3185 C   0  0  0  0  0  0  0  0  0  0  0  0
    3.7033    1.5292   -2.8672 N   0  0  0  0  0  0  0  0  0  0  0  0
   -1.4763    0.6536   -0.9324 C   0  0  0  0  0  0  0  0  0  0  0  0
   -2.0189   -0.3615   -0.1106 C   0  0  0  0  0  0  0  0  0  0  0  0
   -3.3293   -0.2148    0.0962 N   0  0  0  0  0  0  0  0  0  0  0  0
   -3.6385    0.9020   -0.5895 N   0  0  0  0  0  0  0  0  0  0  0  0
   -2.5597    1.4580   -1.2228 C   0  0  0  0  0  0  0  0  0  0  0  0
   -5.0087    1.4066   -0.6073 C   0  0  0  0  0  0  0  0  0  0  0  0
   -6.0254    0.3392   -1.0472 C   0  0  0  0  0  0  0  0  0  0  0  0
   -6.7867   -0.2200    0.1486 C   0  0  0  0  0  0  0  0  0  0  0  0
   -7.5295    0.8102    0.8753 N   0  0  0  0  0  0  0  0  0  0  0  0
   -6.8894    2.1248    0.8920 C   0  0  0  0  0  0  0  0  0  0  0  0
   -5.3762    2.0514    0.7367 C   0  0  0  0  0  0  0  0  0  0  0  0
    2.2728    0.9254    1.9353 H   0  0  0  0  0  0  0  0  0  0  0  0
    4.0049    1.1284    2.0629 H   0  0  0  0  0  0  0  0  0  0  0  0
    3.2214   -0.2310    2.8870 H   0  0  0  0  0  0  0  0  0  0  0  0
    2.5598   -1.1941    0.6483 H   0  0  0  0  0  0  0  0  0  0  0  0
    5.7730   -4.4922    1.5667 H   0  0  0  0  0  0  0  0  0  0  0  0
    7.9723   -3.4594    1.0666 H   0  0  0  0  0  0  0  0  0  0  0  0
    0.7928   -0.0598    0.3091 H   0  0  0  0  0  0  0  0  0  0  0  0
   -0.6361    1.8920   -3.2337 H   0  0  0  0  0  0  0  0  0  0  0  0
    4.3567    1.8633   -2.1667 H   0  0  0  0  0  0  0  0  0  0  0  0
    3.6106    2.1357   -3.6748 H   0  0  0  0  0  0  0  0  0  0  0  0
   -1.5160   -1.2069    0.3423 H   0  0  0  0  0  0  0  0  0  0  0  0
   -2.6582    2.3665   -1.8009 H   0  0  0  0  0  0  0  0  0  0  0  0
   -5.0174    2.1897   -1.3782 H   0  0  0  0  0  0  0  0  0  0  0  0
   -5.5459   -0.4734   -1.6051 H   0  0  0  0  0  0  0  0  0  0  0  0
   -6.7466    0.7980   -1.7369 H   0  0  0  0  0  0  0  0  0  0  0  0
   -7.4888   -0.9918   -0.1864 H   0  0  0  0  0  0  0  0  0  0  0  0
   -6.0953   -0.7152    0.8396 H   0  0  0  0  0  0  0  0  0  0  0  0
   -8.4774    0.8935    0.5089 H   0  0  0  0  0  0  0  0  0  0  0  0
   -7.3052    2.7384    0.0827 H   0  0  0  0  0  0  0  0  0  0  0  0
   -7.1437    2.6260    1.8328 H   0  0  0  0  0  0  0  0  0  0  0  0
   -4.9515    1.4885    1.5790 H   0  0  0  0  0  0  0  0  0  0  0  0
   -4.9419    3.0572    0.7949 H   0  0  0  0  0  0  0  0  0  0  0  0
  1  2  1  0
  2  3  1  0
  3  4  2  0
  4  5  1  0
  5  6  2  0
  6  7  1  0
  7  8  2  0
  8  9  1  0
  7 10  1  0
  4 11  1  0
  2 12  1  0
 12 13  1  0
 13 14  2  0
 14 15  1  0
 15 16  2  0
 16 17  1  0
 17 18  2  0
 18 19  1  0
 15 20  1  0
 20 21  1  0
 21 22  2  0
 22 23  1  0
 23 24  1  0
 23 25  1  0
 25 26  1  0
 26 27  1  0
 27 28  1  0
 28 29  1  0
 29 30  1  0
  8  3  1  0
 18 13  1  0
 24 20  2  0
 30 25  1  0
  1 31  1  0
  1 32  1  0
  1 33  1  0
  2 34  1  6
  5 35  1  0
  6 36  1  0
 14 37  1  0
 16 38  1  0
 19 39  1  0
 19 40  1  0
 21 41  1  0
 24 42  1  0
 25 43  1  0
 26 44  1  0
 26 45  1  0
 27 46  1  0
 27 47  1  0
 28 48  1  0
 29 49  1  0
 29 50  1  0
 30 51  1  0
 30 52  1  0
M  END
>  <energy_abs>  (259) 
31.228134475486396

>  <SMILES>  (259) 
C[C@H](c1c(ccc(c1Cl)F)Cl)Oc2cc(cnc2N)c3cnn(c3)C4CCNCC4

>  <cluster_no>  (259) 
259

>  <fda_drugs_id>  (259) 
KTEIFNKAUNYNJU-GFCCVEGCSA-N

>  <initial_conformation_id>  (259) 
16

>  <minimize_method>  (259) 
MMFF

$$$$

     RDKit          3D

 52 55  0  0  0  0  0  0  0  0999 V2000
    3.7326   -0.4442    2.6447 C   0  0  0  0  0  0  0  0  0  0  0  0
    3.6174   -0.7264    1.1445 C   0  0  2  0  0  0  0  0  0  0  0  0
    4.9600   -1.1560    0.5627 C   0  0  0  0  0  0  0  0  0  0  0  0
    5.2170   -2.5242    0.3052 C   0  0  0  0  0  0  0  0  0  0  0  0
    6.4297   -2.9509   -0.2551 C   0  0  0  0  0  0  0  0  0  0  0  0
    7.4233   -2.0294   -0.5616 C   0  0  0  0  0  0  0  0  0  0  0  0
    7.2040   -0.6861   -0.2925 C   0  0  0  0  0  0  0  0  0  0  0  0
    5.9968   -0.2413    0.2663 C   0  0  0  0  0  0  0  0  0  0  0  0
    5.8740    1.4598    0.5788 Cl  0  0  0  0  0  0  0  0  0  0  0  0
    8.1863    0.1838   -0.5774 F   0  0  0  0  0  0  0  0  0  0  0  0
    4.0817   -3.7774    0.6828 Cl  0  0  0  0  0  0  0  0  0  0  0  0
    3.1093    0.4616    0.5018 O   0  0  0  0  0  0  0  0  0  0  0  0
    1.9617    0.2098   -0.2032 C   0  0  0  0  0  0  0  0  0  0  0  0
    0.7465    0.5989    0.3579 C   0  0  0  0  0  0  0  0  0  0  0  0
   -0.4404    0.3611   -0.3370 C   0  0  0  0  0  0  0  0  0  0  0  0
   -0.3204   -0.2547   -1.5828 C   0  0  0  0  0  0  0  0  0  0  0  0
    0.8541   -0.6150   -2.1652 N   0  0  0  0  0  0  0  0  0  0  0  0
    1.9789   -0.3616   -1.4776 C   0  0  0  0  0  0  0  0  0  0  0  0
    3.1741   -0.7252   -2.1022 N   0  0  0  0  0  0  0  0  0  0  0  0
   -1.7266    0.7307    0.2284 C   0  0  0  0  0  0  0  0  0  0  0  0
   -2.0924    1.0616    1.5553 C   0  0  0  0  0  0  0  0  0  0  0  0
   -3.3878    1.3586    1.6803 N   0  0  0  0  0  0  0  0  0  0  0  0
   -3.8695    1.2201    0.4306 N   0  0  0  0  0  0  0  0  0  0  0  0
   -2.9093    0.8502   -0.4732 C   0  0  0  0  0  0  0  0  0  0  0  0
   -5.2831    1.4863    0.1779 C   0  0  0  0  0  0  0  0  0  0  0  0
   -5.4960    2.7577   -0.6580 C   0  0  0  0  0  0  0  0  0  0  0  0
   -5.7226    2.4422   -2.1321 C   0  0  0  0  0  0  0  0  0  0  0  0
   -6.7999    1.4880   -2.3832 N   0  0  0  0  0  0  0  0  0  0  0  0
   -7.2075    0.6930   -1.2285 C   0  0  0  0  0  0  0  0  0  0  0  0
   -6.0069    0.2617   -0.3986 C   0  0  0  0  0  0  0  0  0  0  0  0
    4.4015    0.3965    2.8564 H   0  0  0  0  0  0  0  0  0  0  0  0
    2.7540   -0.1685    3.0530 H   0  0  0  0  0  0  0  0  0  0  0  0
    4.0997   -1.3201    3.1891 H   0  0  0  0  0  0  0  0  0  0  0  0
    2.8791   -1.5302    1.0392 H   0  0  0  0  0  0  0  0  0  0  0  0
    6.6027   -4.0075   -0.4532 H   0  0  0  0  0  0  0  0  0  0  0  0
    8.3651   -2.3473   -0.9976 H   0  0  0  0  0  0  0  0  0  0  0  0
    0.7489    1.0845    1.3288 H   0  0  0  0  0  0  0  0  0  0  0  0
   -1.1928   -0.4973   -2.1831 H   0  0  0  0  0  0  0  0  0  0  0  0
    2.9331   -1.0349   -3.0401 H   0  0  0  0  0  0  0  0  0  0  0  0
    3.8110    0.0657   -2.1087 H   0  0  0  0  0  0  0  0  0  0  0  0
   -1.4690    1.0998    2.4401 H   0  0  0  0  0  0  0  0  0  0  0  0
   -3.1516    0.7140   -1.5177 H   0  0  0  0  0  0  0  0  0  0  0  0
   -5.7177    1.6885    1.1676 H   0  0  0  0  0  0  0  0  0  0  0  0
   -6.3824    3.2846   -0.2788 H   0  0  0  0  0  0  0  0  0  0  0  0
   -4.6565    3.4550   -0.5482 H   0  0  0  0  0  0  0  0  0  0  0  0
   -5.9357    3.3710   -2.6740 H   0  0  0  0  0  0  0  0  0  0  0  0
   -4.8021    2.0424   -2.5708 H   0  0  0  0  0  0  0  0  0  0  0  0
   -7.6113    1.9578   -2.7856 H   0  0  0  0  0  0  0  0  0  0  0  0
   -7.7475   -0.1917   -1.5835 H   0  0  0  0  0  0  0  0  0  0  0  0
   -7.9084    1.2652   -0.6081 H   0  0  0  0  0  0  0  0  0  0  0  0
   -5.3408   -0.3477   -1.0229 H   0  0  0  0  0  0  0  0  0  0  0  0
   -6.3315   -0.3921    0.4206 H   0  0  0  0  0  0  0  0  0  0  0  0
  1  2  1  0
  2  3  1  0
  3  4  2  0
  4  5  1  0
  5  6  2  0
  6  7  1  0
  7  8  2  0
  8  9  1  0
  7 10  1  0
  4 11  1  0
  2 12  1  0
 12 13  1  0
 13 14  2  0
 14 15  1  0
 15 16  2  0
 16 17  1  0
 17 18  2  0
 18 19  1  0
 15 20  1  0
 20 21  1  0
 21 22  2  0
 22 23  1  0
 23 24  1  0
 23 25  1  0
 25 26  1  0
 26 27  1  0
 27 28  1  0
 28 29  1  0
 29 30  1  0
  8  3  1  0
 18 13  1  0
 24 20  2  0
 30 25  1  0
  1 31  1  0
  1 32  1  0
  1 33  1  0
  2 34  1  1
  5 35  1  0
  6 36  1  0
 14 37  1  0
 16 38  1  0
 19 39  1  0
 19 40  1  0
 21 41  1  0
 24 42  1  0
 25 43  1  0
 26 44  1  0
 26 45  1  0
 27 46  1  0
 27 47  1  0
 28 48  1  0
 29 49  1  0
 29 50  1  0
 30 51  1  0
 30 52  1  0
M  END
>  <energy_abs>  (260) 
28.780872382723047

>  <SMILES>  (260) 
C[C@H](c1c(ccc(c1Cl)F)Cl)Oc2cc(cnc2N)c3cnn(c3)C4CCNCC4

>  <cluster_no>  (260) 
260

>  <fda_drugs_id>  (260) 
KTEIFNKAUNYNJU-GFCCVEGCSA-N

>  <initial_conformation_id>  (260) 
15

>  <minimize_method>  (260) 
MMFF

$$$$

     RDKit          3D

 52 55  0  0  0  0  0  0  0  0999 V2000
    5.8188   -0.7310    1.3426 C   0  0  0  0  0  0  0  0  0  0  0  0
    4.3191   -0.8347    1.0522 C   0  0  2  0  0  0  0  0  0  0  0  0
    4.0384   -0.7512   -0.4453 C   0  0  0  0  0  0  0  0  0  0  0  0
    3.7045   -1.9174   -1.1725 C   0  0  0  0  0  0  0  0  0  0  0  0
    3.4291   -1.8714   -2.5463 C   0  0  0  0  0  0  0  0  0  0  0  0
    3.4874   -0.6658   -3.2332 C   0  0  0  0  0  0  0  0  0  0  0  0
    3.8253    0.4891   -2.5442 C   0  0  0  0  0  0  0  0  0  0  0  0
    4.1029    0.4617   -1.1697 C   0  0  0  0  0  0  0  0  0  0  0  0
    4.5148    1.9752   -0.4344 Cl  0  0  0  0  0  0  0  0  0  0  0  0
    3.8735    1.6415   -3.2291 F   0  0  0  0  0  0  0  0  0  0  0  0
    3.6225   -3.4845   -0.4403 Cl  0  0  0  0  0  0  0  0  0  0  0  0
    3.6466    0.1967    1.8054 O   0  0  0  0  0  0  0  0  0  0  0  0
    2.3925   -0.1979    2.1999 C   0  0  0  0  0  0  0  0  0  0  0  0
    1.3034    0.0467    1.3650 C   0  0  0  0  0  0  0  0  0  0  0  0
    0.0272   -0.3459    1.7681 C   0  0  0  0  0  0  0  0  0  0  0  0
   -0.0768   -0.9516    3.0181 C   0  0  0  0  0  0  0  0  0  0  0  0
    0.9647   -1.1695    3.8619 N   0  0  0  0  0  0  0  0  0  0  0  0
    2.1834   -0.7754    3.4582 C   0  0  0  0  0  0  0  0  0  0  0  0
    3.2535   -0.9727    4.3451 N   0  0  0  0  0  0  0  0  0  0  0  0
   -1.1369   -0.1503    0.9260 C   0  0  0  0  0  0  0  0  0  0  0  0
   -2.3705   -0.8412    0.8757 C   0  0  0  0  0  0  0  0  0  0  0  0
   -3.1997   -0.3552   -0.0500 N   0  0  0  0  0  0  0  0  0  0  0  0
   -2.5089    0.6667   -0.5913 N   0  0  0  0  0  0  0  0  0  0  0  0
   -1.2659    0.8246   -0.0422 C   0  0  0  0  0  0  0  0  0  0  0  0
   -3.0921    1.4701   -1.6583 C   0  0  0  0  0  0  0  0  0  0  0  0
   -3.1826    0.6844   -2.9777 C   0  0  0  0  0  0  0  0  0  0  0  0
   -4.3816    1.1112   -3.8221 C   0  0  0  0  0  0  0  0  0  0  0  0
   -4.5784    2.5521   -3.7266 N   0  0  0  0  0  0  0  0  0  0  0  0
   -4.9803    2.9666   -2.3797 C   0  0  0  0  0  0  0  0  0  0  0  0
   -4.4487    2.0618   -1.2665 C   0  0  0  0  0  0  0  0  0  0  0  0
    6.3808   -1.5074    0.8141 H   0  0  0  0  0  0  0  0  0  0  0  0
    6.2303    0.2425    1.0604 H   0  0  0  0  0  0  0  0  0  0  0  0
    6.0007   -0.8401    2.4175 H   0  0  0  0  0  0  0  0  0  0  0  0
    4.0075   -1.8032    1.4577 H   0  0  0  0  0  0  0  0  0  0  0  0
    3.1690   -2.7787   -3.0872 H   0  0  0  0  0  0  0  0  0  0  0  0
    3.2799   -0.6194   -4.2986 H   0  0  0  0  0  0  0  0  0  0  0  0
    1.4610    0.5337    0.4090 H   0  0  0  0  0  0  0  0  0  0  0  0
   -1.0342   -1.2830    3.4130 H   0  0  0  0  0  0  0  0  0  0  0  0
    3.7168   -0.0767    4.4779 H   0  0  0  0  0  0  0  0  0  0  0  0
    3.9291   -1.5954    3.9200 H   0  0  0  0  0  0  0  0  0  0  0  0
   -2.6978   -1.6861    1.4680 H   0  0  0  0  0  0  0  0  0  0  0  0
   -0.6034    1.6104   -0.3773 H   0  0  0  0  0  0  0  0  0  0  0  0
   -2.3982    2.3091   -1.8108 H   0  0  0  0  0  0  0  0  0  0  0  0
   -3.2467   -0.3968   -2.8050 H   0  0  0  0  0  0  0  0  0  0  0  0
   -2.2540    0.8448   -3.5417 H   0  0  0  0  0  0  0  0  0  0  0  0
   -4.1992    0.8356   -4.8662 H   0  0  0  0  0  0  0  0  0  0  0  0
   -5.2884    0.5775   -3.5108 H   0  0  0  0  0  0  0  0  0  0  0  0
   -5.2831    2.8575   -4.3985 H   0  0  0  0  0  0  0  0  0  0  0  0
   -4.6194    3.9891   -2.2239 H   0  0  0  0  0  0  0  0  0  0  0  0
   -6.0739    3.0050   -2.3123 H   0  0  0  0  0  0  0  0  0  0  0  0
   -5.1706    1.2554   -1.0803 H   0  0  0  0  0  0  0  0  0  0  0  0
   -4.3707    2.6302   -0.3320 H   0  0  0  0  0  0  0  0  0  0  0  0
  1  2  1  0
  2  3  1  0
  3  4  2  0
  4  5  1  0
  5  6  2  0
  6  7  1  0
  7  8  2  0
  8  9  1  0
  7 10  1  0
  4 11  1  0
  2 12  1  0
 12 13  1  0
 13 14  2  0
 14 15  1  0
 15 16  2  0
 16 17  1  0
 17 18  2  0
 18 19  1  0
 15 20  1  0
 20 21  1  0
 21 22  2  0
 22 23  1  0
 23 24  1  0
 23 25  1  0
 25 26  1  0
 26 27  1  0
 27 28  1  0
 28 29  1  0
 29 30  1  0
  8  3  1  0
 18 13  1  0
 24 20  2  0
 30 25  1  0
  1 31  1  0
  1 32  1  0
  1 33  1  0
  2 34  1  1
  5 35  1  0
  6 36  1  0
 14 37  1  0
 16 38  1  0
 19 39  1  0
 19 40  1  0
 21 41  1  0
 24 42  1  0
 25 43  1  0
 26 44  1  0
 26 45  1  0
 27 46  1  0
 27 47  1  0
 28 48  1  0
 29 49  1  0
 29 50  1  0
 30 51  1  0
 30 52  1  0
M  END
>  <energy_abs>  (261) 
38.093131283338984

>  <SMILES>  (261) 
C[C@H](c1c(ccc(c1Cl)F)Cl)Oc2cc(cnc2N)c3cnn(c3)C4CCNCC4

>  <cluster_no>  (261) 
261

>  <fda_drugs_id>  (261) 
KTEIFNKAUNYNJU-GFCCVEGCSA-N

>  <initial_conformation_id>  (261) 
14

>  <minimize_method>  (261) 
MMFF

$$$$

     RDKit          3D

 52 55  0  0  0  0  0  0  0  0999 V2000
    3.2639    0.1237   -2.2127 C   0  0  0  0  0  0  0  0  0  0  0  0
    3.5646   -0.2357   -0.7555 C   0  0  2  0  0  0  0  0  0  0  0  0
    4.9936   -0.7487   -0.5926 C   0  0  0  0  0  0  0  0  0  0  0  0
    5.3937   -2.0396   -1.0117 C   0  0  0  0  0  0  0  0  0  0  0  0
    6.7152   -2.4845   -0.8474 C   0  0  0  0  0  0  0  0  0  0  0  0
    7.6728   -1.6568   -0.2742 C   0  0  0  0  0  0  0  0  0  0  0  0
    7.3075   -0.3819    0.1283 C   0  0  0  0  0  0  0  0  0  0  0  0
    5.9927    0.0780   -0.0259 C   0  0  0  0  0  0  0  0  0  0  0  0
    5.6652    1.6961    0.5019 Cl  0  0  0  0  0  0  0  0  0  0  0  0
    8.2481    0.4061    0.6700 F   0  0  0  0  0  0  0  0  0  0  0  0
    4.3205   -3.1704   -1.7654 Cl  0  0  0  0  0  0  0  0  0  0  0  0
    2.6340   -1.2355   -0.2962 O   0  0  0  0  0  0  0  0  0  0  0  0
    1.6912   -0.7198    0.5542 C   0  0  0  0  0  0  0  0  0  0  0  0
    0.4580   -0.3324    0.0330 C   0  0  0  0  0  0  0  0  0  0  0  0
   -0.5219    0.1666    0.8913 C   0  0  0  0  0  0  0  0  0  0  0  0
   -0.1952    0.2341    2.2440 C   0  0  0  0  0  0  0  0  0  0  0  0
    0.9900   -0.1601    2.7755 N   0  0  0  0  0  0  0  0  0  0  0  0
    1.9112   -0.6583    1.9358 C   0  0  0  0  0  0  0  0  0  0  0  0
    3.1322   -1.0691    2.4909 N   0  0  0  0  0  0  0  0  0  0  0  0
   -1.8193    0.6039    0.4113 C   0  0  0  0  0  0  0  0  0  0  0  0
   -2.7439    1.5245    0.9558 C   0  0  0  0  0  0  0  0  0  0  0  0
   -3.8480    1.6481    0.2166 N   0  0  0  0  0  0  0  0  0  0  0  0
   -3.6473    0.8004   -0.8088 N   0  0  0  0  0  0  0  0  0  0  0  0
   -2.4414    0.1534   -0.7352 C   0  0  0  0  0  0  0  0  0  0  0  0
   -4.6525    0.6283   -1.8565 C   0  0  0  0  0  0  0  0  0  0  0  0
   -5.9534    0.0116   -1.3276 C   0  0  0  0  0  0  0  0  0  0  0  0
   -6.8950    1.0475   -0.7209 C   0  0  0  0  0  0  0  0  0  0  0  0
   -7.1462    2.1408   -1.6616 N   0  0  0  0  0  0  0  0  0  0  0  0
   -5.9028    2.8469   -1.9749 C   0  0  0  0  0  0  0  0  0  0  0  0
   -4.9024    1.9154   -2.6528 C   0  0  0  0  0  0  0  0  0  0  0  0
    3.2613   -0.7542   -2.8652 H   0  0  0  0  0  0  0  0  0  0  0  0
    2.2670    0.5695   -2.2973 H   0  0  0  0  0  0  0  0  0  0  0  0
    3.9929    0.8412   -2.6043 H   0  0  0  0  0  0  0  0  0  0  0  0
    3.4223    0.6781   -0.1695 H   0  0  0  0  0  0  0  0  0  0  0  0
    7.0037   -3.4828   -1.1724 H   0  0  0  0  0  0  0  0  0  0  0  0
    8.6975   -1.9921   -0.1451 H   0  0  0  0  0  0  0  0  0  0  0  0
    0.2811   -0.4189   -1.0339 H   0  0  0  0  0  0  0  0  0  0  0  0
   -0.9006    0.6056    2.9829 H   0  0  0  0  0  0  0  0  0  0  0  0
    3.8649   -0.4355    2.1918 H   0  0  0  0  0  0  0  0  0  0  0  0
    3.3498   -1.9939    2.1279 H   0  0  0  0  0  0  0  0  0  0  0  0
   -2.6589    2.1165    1.8584 H   0  0  0  0  0  0  0  0  0  0  0  0
   -2.1481   -0.5683   -1.4852 H   0  0  0  0  0  0  0  0  0  0  0  0
   -4.2053   -0.0995   -2.5483 H   0  0  0  0  0  0  0  0  0  0  0  0
   -5.7435   -0.7737   -0.5911 H   0  0  0  0  0  0  0  0  0  0  0  0
   -6.4704   -0.4760   -2.1653 H   0  0  0  0  0  0  0  0  0  0  0  0
   -6.5079    1.4354    0.2275 H   0  0  0  0  0  0  0  0  0  0  0  0
   -7.8499    0.5616   -0.4893 H   0  0  0  0  0  0  0  0  0  0  0  0
   -7.7917    2.8008   -1.2250 H   0  0  0  0  0  0  0  0  0  0  0  0
   -5.4801    3.3030   -1.0732 H   0  0  0  0  0  0  0  0  0  0  0  0
   -6.1343    3.6717   -2.6586 H   0  0  0  0  0  0  0  0  0  0  0  0
   -5.3015    1.6396   -3.6383 H   0  0  0  0  0  0  0  0  0  0  0  0
   -3.9626    2.4507   -2.8357 H   0  0  0  0  0  0  0  0  0  0  0  0
  1  2  1  0
  2  3  1  0
  3  4  2  0
  4  5  1  0
  5  6  2  0
  6  7  1  0
  7  8  2  0
  8  9  1  0
  7 10  1  0
  4 11  1  0
  2 12  1  0
 12 13  1  0
 13 14  2  0
 14 15  1  0
 15 16  2  0
 16 17  1  0
 17 18  2  0
 18 19  1  0
 15 20  1  0
 20 21  1  0
 21 22  2  0
 22 23  1  0
 23 24  1  0
 23 25  1  0
 25 26  1  0
 26 27  1  0
 27 28  1  0
 28 29  1  0
 29 30  1  0
  8  3  1  0
 18 13  1  0
 24 20  2  0
 30 25  1  0
  1 31  1  0
  1 32  1  0
  1 33  1  0
  2 34  1  1
  5 35  1  0
  6 36  1  0
 14 37  1  0
 16 38  1  0
 19 39  1  0
 19 40  1  0
 21 41  1  0
 24 42  1  0
 25 43  1  0
 26 44  1  0
 26 45  1  0
 27 46  1  0
 27 47  1  0
 28 48  1  0
 29 49  1  0
 29 50  1  0
 30 51  1  0
 30 52  1  0
M  END
>  <energy_abs>  (262) 
32.13928505721163

>  <SMILES>  (262) 
C[C@H](c1c(ccc(c1Cl)F)Cl)Oc2cc(cnc2N)c3cnn(c3)C4CCNCC4

>  <cluster_no>  (262) 
262

>  <fda_drugs_id>  (262) 
KTEIFNKAUNYNJU-GFCCVEGCSA-N

>  <initial_conformation_id>  (262) 
13

>  <minimize_method>  (262) 
MMFF

$$$$

     RDKit          3D

 52 55  0  0  0  0  0  0  0  0999 V2000
    3.8279    0.9709   -1.3263 C   0  0  0  0  0  0  0  0  0  0  0  0
    4.1341    0.3750    0.0572 C   0  0  2  0  0  0  0  0  0  0  0  0
    5.2340   -0.6811   -0.0249 C   0  0  0  0  0  0  0  0  0  0  0  0
    6.5296   -0.4255    0.5024 C   0  0  0  0  0  0  0  0  0  0  0  0
    7.5568   -1.3795    0.4222 C   0  0  0  0  0  0  0  0  0  0  0  0
    7.3200   -2.6120   -0.1850 C   0  0  0  0  0  0  0  0  0  0  0  0
    6.0539   -2.8881   -0.7075 C   0  0  0  0  0  0  0  0  0  0  0  0
    5.0172   -1.9467   -0.6338 C   0  0  0  0  0  0  0  0  0  0  0  0
    3.4995   -2.4133   -1.3444 Cl  0  0  0  0  0  0  0  0  0  0  0  0
    5.8526   -4.0789   -1.2971 F   0  0  0  0  0  0  0  0  0  0  0  0
    6.9555    1.0655    1.2787 Cl  0  0  0  0  0  0  0  0  0  0  0  0
    3.0086   -0.2292    0.7227 O   0  0  0  0  0  0  0  0  0  0  0  0
    1.9123    0.5816    0.8310 C   0  0  0  0  0  0  0  0  0  0  0  0
    0.8449    0.3191   -0.0289 C   0  0  0  0  0  0  0  0  0  0  0  0
   -0.3198    1.0746    0.0737 C   0  0  0  0  0  0  0  0  0  0  0  0
   -0.3416    2.0729    1.0466 C   0  0  0  0  0  0  0  0  0  0  0  0
    0.6715    2.3244    1.9197 N   0  0  0  0  0  0  0  0  0  0  0  0
    1.7690    1.5528    1.8351 C   0  0  0  0  0  0  0  0  0  0  0  0
    2.7524    1.7476    2.8157 N   0  0  0  0  0  0  0  0  0  0  0  0
   -1.4483    0.8059   -0.7935 C   0  0  0  0  0  0  0  0  0  0  0  0
   -1.4966    0.3601   -2.1323 C   0  0  0  0  0  0  0  0  0  0  0  0
   -2.7474    0.1642   -2.5711 N   0  0  0  0  0  0  0  0  0  0  0  0
   -3.5107    0.4474   -1.4995 N   0  0  0  0  0  0  0  0  0  0  0  0
   -2.7779    0.8731   -0.4218 C   0  0  0  0  0  0  0  0  0  0  0  0
   -4.9570    0.2363   -1.5682 C   0  0  0  0  0  0  0  0  0  0  0  0
   -5.4570   -0.7372   -0.4830 C   0  0  0  0  0  0  0  0  0  0  0  0
   -6.2691   -0.0194    0.5877 C   0  0  0  0  0  0  0  0  0  0  0  0
   -7.4325    0.6519    0.0205 N   0  0  0  0  0  0  0  0  0  0  0  0
   -7.1866    1.3485   -1.2444 C   0  0  0  0  0  0  0  0  0  0  0  0
   -5.7104    1.5722   -1.5624 C   0  0  0  0  0  0  0  0  0  0  0  0
    3.2285    0.3008   -1.9496 H   0  0  0  0  0  0  0  0  0  0  0  0
    4.7479    1.2269   -1.8636 H   0  0  0  0  0  0  0  0  0  0  0  0
    3.2477    1.8963   -1.2269 H   0  0  0  0  0  0  0  0  0  0  0  0
    4.4652    1.2027    0.6866 H   0  0  0  0  0  0  0  0  0  0  0  0
    8.5485   -1.1654    0.8394 H   0  0  0  0  0  0  0  0  0  0  0  0
    8.1064   -3.3565   -0.2568 H   0  0  0  0  0  0  0  0  0  0  0  0
    0.9276   -0.4922   -0.7534 H   0  0  0  0  0  0  0  0  0  0  0  0
   -1.2027    2.7253    1.1696 H   0  0  0  0  0  0  0  0  0  0  0  0
    2.9697    0.8458    3.2262 H   0  0  0  0  0  0  0  0  0  0  0  0
    3.6040    2.1197    2.4096 H   0  0  0  0  0  0  0  0  0  0  0  0
   -0.6717    0.1695   -2.8087 H   0  0  0  0  0  0  0  0  0  0  0  0
   -3.2545    1.1360    0.5133 H   0  0  0  0  0  0  0  0  0  0  0  0
   -5.1355   -0.2488   -2.5386 H   0  0  0  0  0  0  0  0  0  0  0  0
   -6.0930   -1.4951   -0.9565 H   0  0  0  0  0  0  0  0  0  0  0  0
   -4.6319   -1.2864   -0.0147 H   0  0  0  0  0  0  0  0  0  0  0  0
   -5.6446    0.7077    1.1165 H   0  0  0  0  0  0  0  0  0  0  0  0
   -6.6110   -0.7435    1.3350 H   0  0  0  0  0  0  0  0  0  0  0  0
   -7.8474    1.2820    0.7147 H   0  0  0  0  0  0  0  0  0  0  0  0
   -7.7117    2.3099   -1.2403 H   0  0  0  0  0  0  0  0  0  0  0  0
   -7.6416    0.7567   -2.0535 H   0  0  0  0  0  0  0  0  0  0  0  0
   -5.6138    2.0562   -2.5467 H   0  0  0  0  0  0  0  0  0  0  0  0
   -5.2765    2.2732   -0.8362 H   0  0  0  0  0  0  0  0  0  0  0  0
  1  2  1  0
  2  3  1  0
  3  4  2  0
  4  5  1  0
  5  6  2  0
  6  7  1  0
  7  8  2  0
  8  9  1  0
  7 10  1  0
  4 11  1  0
  2 12  1  0
 12 13  1  0
 13 14  2  0
 14 15  1  0
 15 16  2  0
 16 17  1  0
 17 18  2  0
 18 19  1  0
 15 20  1  0
 20 21  1  0
 21 22  2  0
 22 23  1  0
 23 24  1  0
 23 25  1  0
 25 26  1  0
 26 27  1  0
 27 28  1  0
 28 29  1  0
 29 30  1  0
  8  3  1  0
 18 13  1  0
 24 20  2  0
 30 25  1  0
  1 31  1  0
  1 32  1  0
  1 33  1  0
  2 34  1  1
  5 35  1  0
  6 36  1  0
 14 37  1  0
 16 38  1  0
 19 39  1  0
 19 40  1  0
 21 41  1  0
 24 42  1  0
 25 43  1  0
 26 44  1  0
 26 45  1  0
 27 46  1  0
 27 47  1  0
 28 48  1  0
 29 49  1  0
 29 50  1  0
 30 51  1  0
 30 52  1  0
M  END
>  <energy_abs>  (263) 
43.57822676488311

>  <SMILES>  (263) 
C[C@H](c1c(ccc(c1Cl)F)Cl)Oc2cc(cnc2N)c3cnn(c3)C4CCNCC4

>  <cluster_no>  (263) 
263

>  <fda_drugs_id>  (263) 
KTEIFNKAUNYNJU-GFCCVEGCSA-N

>  <initial_conformation_id>  (263) 
11

>  <minimize_method>  (263) 
MMFF

$$$$

     RDKit          3D

 52 55  0  0  0  0  0  0  0  0999 V2000
    6.1027    0.7467    0.7651 C   0  0  0  0  0  0  0  0  0  0  0  0
    4.5887    0.5460    0.6544 C   0  0  2  0  0  0  0  0  0  0  0  0
    4.2468   -0.8774    0.2244 C   0  0  0  0  0  0  0  0  0  0  0  0
    3.7423   -1.8051    1.1653 C   0  0  0  0  0  0  0  0  0  0  0  0
    3.4019   -3.1137    0.7949 C   0  0  0  0  0  0  0  0  0  0  0  0
    3.5627   -3.5347   -0.5187 C   0  0  0  0  0  0  0  0  0  0  0  0
    4.0710   -2.6484   -1.4555 C   0  0  0  0  0  0  0  0  0  0  0  0
    4.4168   -1.3362   -1.1027 C   0  0  0  0  0  0  0  0  0  0  0  0
    5.0470   -0.3363   -2.3691 Cl  0  0  0  0  0  0  0  0  0  0  0  0
    4.2258   -3.0811   -2.7161 F   0  0  0  0  0  0  0  0  0  0  0  0
    3.5163   -1.4114    2.8361 Cl  0  0  0  0  0  0  0  0  0  0  0  0
    4.0705    1.5372   -0.2584 O   0  0  0  0  0  0  0  0  0  0  0  0
    2.8263    1.9761    0.1202 C   0  0  0  0  0  0  0  0  0  0  0  0
    1.6930    1.2749   -0.2890 C   0  0  0  0  0  0  0  0  0  0  0  0
    0.4297    1.7307    0.0884 C   0  0  0  0  0  0  0  0  0  0  0  0
    0.3871    2.8988    0.8465 C   0  0  0  0  0  0  0  0  0  0  0  0
    1.4754    3.6140    1.2319 N   0  0  0  0  0  0  0  0  0  0  0  0
    2.6808    3.1600    0.8531 C   0  0  0  0  0  0  0  0  0  0  0  0
    3.8044    3.9174    1.2213 N   0  0  0  0  0  0  0  0  0  0  0  0
   -0.7693    1.0141   -0.3059 C   0  0  0  0  0  0  0  0  0  0  0  0
   -0.9929    0.1009   -1.3636 C   0  0  0  0  0  0  0  0  0  0  0  0
   -2.2403   -0.3722   -1.3858 N   0  0  0  0  0  0  0  0  0  0  0  0
   -2.8353    0.2471   -0.3496 N   0  0  0  0  0  0  0  0  0  0  0  0
   -1.9902    1.0792    0.3346 C   0  0  0  0  0  0  0  0  0  0  0  0
   -4.2420   -0.0023   -0.0450 C   0  0  0  0  0  0  0  0  0  0  0  0
   -4.5578   -1.5000    0.1018 C   0  0  0  0  0  0  0  0  0  0  0  0
   -5.2172   -2.0491   -1.1577 C   0  0  0  0  0  0  0  0  0  0  0  0
   -6.4725   -1.3719   -1.4844 N   0  0  0  0  0  0  0  0  0  0  0  0
   -6.5288    0.0331   -1.0870 C   0  0  0  0  0  0  0  0  0  0  0  0
   -5.1577    0.6963   -1.0608 C   0  0  0  0  0  0  0  0  0  0  0  0
    6.5507    0.0240    1.4553 H   0  0  0  0  0  0  0  0  0  0  0  0
    6.3221    1.7563    1.1302 H   0  0  0  0  0  0  0  0  0  0  0  0
    6.6074    0.6562   -0.2010 H   0  0  0  0  0  0  0  0  0  0  0  0
    4.1907    0.7638    1.6515 H   0  0  0  0  0  0  0  0  0  0  0  0
    3.0097   -3.8107    1.5328 H   0  0  0  0  0  0  0  0  0  0  0  0
    3.3020   -4.5455   -0.8184 H   0  0  0  0  0  0  0  0  0  0  0  0
    1.8072    0.3832   -0.8961 H   0  0  0  0  0  0  0  0  0  0  0  0
   -0.5544    3.3322    1.1725 H   0  0  0  0  0  0  0  0  0  0  0  0
    4.4172    3.3466    1.7930 H   0  0  0  0  0  0  0  0  0  0  0  0
    4.3176    4.1414    0.3716 H   0  0  0  0  0  0  0  0  0  0  0  0
   -0.2994   -0.2390   -2.1221 H   0  0  0  0  0  0  0  0  0  0  0  0
   -2.3298    1.6271    1.2029 H   0  0  0  0  0  0  0  0  0  0  0  0
   -4.4092    0.4552    0.9399 H   0  0  0  0  0  0  0  0  0  0  0  0
   -5.2477   -1.6376    0.9458 H   0  0  0  0  0  0  0  0  0  0  0  0
   -3.6607   -2.0814    0.3449 H   0  0  0  0  0  0  0  0  0  0  0  0
   -4.5351   -1.9621   -2.0114 H   0  0  0  0  0  0  0  0  0  0  0  0
   -5.4157   -3.1193   -1.0333 H   0  0  0  0  0  0  0  0  0  0  0  0
   -7.2666   -1.8760   -1.0902 H   0  0  0  0  0  0  0  0  0  0  0  0
   -6.9872    0.1096   -0.0934 H   0  0  0  0  0  0  0  0  0  0  0  0
   -7.1864    0.5679   -1.7806 H   0  0  0  0  0  0  0  0  0  0  0  0
   -4.7249    0.6760   -2.0704 H   0  0  0  0  0  0  0  0  0  0  0  0
   -5.2583    1.7565   -0.7954 H   0  0  0  0  0  0  0  0  0  0  0  0
  1  2  1  0
  2  3  1  0
  3  4  2  0
  4  5  1  0
  5  6  2  0
  6  7  1  0
  7  8  2  0
  8  9  1  0
  7 10  1  0
  4 11  1  0
  2 12  1  0
 12 13  1  0
 13 14  2  0
 14 15  1  0
 15 16  2  0
 16 17  1  0
 17 18  2  0
 18 19  1  0
 15 20  1  0
 20 21  1  0
 21 22  2  0
 22 23  1  0
 23 24  1  0
 23 25  1  0
 25 26  1  0
 26 27  1  0
 27 28  1  0
 28 29  1  0
 29 30  1  0
  8  3  1  0
 18 13  1  0
 24 20  2  0
 30 25  1  0
  1 31  1  0
  1 32  1  0
  1 33  1  0
  2 34  1  1
  5 35  1  0
  6 36  1  0
 14 37  1  0
 16 38  1  0
 19 39  1  0
 19 40  1  0
 21 41  1  0
 24 42  1  0
 25 43  1  0
 26 44  1  0
 26 45  1  0
 27 46  1  0
 27 47  1  0
 28 48  1  0
 29 49  1  0
 29 50  1  0
 30 51  1  0
 30 52  1  0
M  END
>  <energy_abs>  (264) 
39.88457862604541

>  <SMILES>  (264) 
C[C@H](c1c(ccc(c1Cl)F)Cl)Oc2cc(cnc2N)c3cnn(c3)C4CCNCC4

>  <cluster_no>  (264) 
264

>  <fda_drugs_id>  (264) 
KTEIFNKAUNYNJU-GFCCVEGCSA-N

>  <initial_conformation_id>  (264) 
10

>  <minimize_method>  (264) 
MMFF

$$$$

     RDKit          3D

 52 55  0  0  0  0  0  0  0  0999 V2000
    3.5907    0.5926   -1.6586 C   0  0  0  0  0  0  0  0  0  0  0  0
    4.1311    0.3408   -0.2421 C   0  0  2  0  0  0  0  0  0  0  0  0
    5.2998   -0.6421   -0.2627 C   0  0  0  0  0  0  0  0  0  0  0  0
    6.6233   -0.1978   -0.0224 C   0  0  0  0  0  0  0  0  0  0  0  0
    7.7139   -1.0844   -0.0449 C   0  0  0  0  0  0  0  0  0  0  0  0
    7.5089   -2.4368   -0.3016 C   0  0  0  0  0  0  0  0  0  0  0  0
    6.2182   -2.8959   -0.5423 C   0  0  0  0  0  0  0  0  0  0  0  0
    5.1204   -2.0223   -0.5286 C   0  0  0  0  0  0  0  0  0  0  0  0
    3.5679   -2.7244   -0.8770 Cl  0  0  0  0  0  0  0  0  0  0  0  0
    6.0521   -4.2020   -0.8031 F   0  0  0  0  0  0  0  0  0  0  0  0
    7.0076    1.4609    0.3138 Cl  0  0  0  0  0  0  0  0  0  0  0  0
    3.1575   -0.1688    0.6890 O   0  0  0  0  0  0  0  0  0  0  0  0
    2.0770    0.6509    0.8765 C   0  0  0  0  0  0  0  0  0  0  0  0
    0.8813    0.2844    0.2563 C   0  0  0  0  0  0  0  0  0  0  0  0
   -0.2641    1.0585    0.4423 C   0  0  0  0  0  0  0  0  0  0  0  0
   -0.1289    2.1745    1.2659 C   0  0  0  0  0  0  0  0  0  0  0  0
    1.0132    2.5303    1.9092 N   0  0  0  0  0  0  0  0  0  0  0  0
    2.0929    1.7470    1.7462 C   0  0  0  0  0  0  0  0  0  0  0  0
    3.2492    2.1128    2.4450 N   0  0  0  0  0  0  0  0  0  0  0  0
   -1.5186    0.7010   -0.1988 C   0  0  0  0  0  0  0  0  0  0  0  0
   -1.7851   -0.1758   -1.2779 C   0  0  0  0  0  0  0  0  0  0  0  0
   -3.0856   -0.2599   -1.5733 N   0  0  0  0  0  0  0  0  0  0  0  0
   -3.6681    0.5555   -0.6736 N   0  0  0  0  0  0  0  0  0  0  0  0
   -2.7703    1.1584    0.1657 C   0  0  0  0  0  0  0  0  0  0  0  0
   -5.1190    0.7040   -0.6491 C   0  0  0  0  0  0  0  0  0  0  0  0
   -5.8254   -0.6352   -0.4146 C   0  0  0  0  0  0  0  0  0  0  0  0
   -7.3414   -0.4442   -0.3336 C   0  0  0  0  0  0  0  0  0  0  0  0
   -7.8514    0.6497   -1.1664 N   0  0  0  0  0  0  0  0  0  0  0  0
   -7.0166    0.8882   -2.3393 C   0  0  0  0  0  0  0  0  0  0  0  0
   -5.6456    1.4127   -1.9113 C   0  0  0  0  0  0  0  0  0  0  0  0
    2.9329    1.4703   -1.6637 H   0  0  0  0  0  0  0  0  0  0  0  0
    2.9939   -0.2413   -2.0411 H   0  0  0  0  0  0  0  0  0  0  0  0
    4.4056    0.7915   -2.3642 H   0  0  0  0  0  0  0  0  0  0  0  0
    4.4707    1.3067    0.1403 H   0  0  0  0  0  0  0  0  0  0  0  0
    8.7231   -0.7260    0.1337 H   0  0  0  0  0  0  0  0  0  0  0  0
    8.3453   -3.1331   -0.3205 H   0  0  0  0  0  0  0  0  0  0  0  0
    0.8645   -0.6124   -0.3554 H   0  0  0  0  0  0  0  0  0  0  0  0
   -0.9585    2.8514    1.4520 H   0  0  0  0  0  0  0  0  0  0  0  0
    3.6611    1.2789    2.8542 H   0  0  0  0  0  0  0  0  0  0  0  0
    3.9242    2.5319    1.8181 H   0  0  0  0  0  0  0  0  0  0  0  0
   -1.0852   -0.7570   -1.8653 H   0  0  0  0  0  0  0  0  0  0  0  0
   -3.1039    1.8326    0.9428 H   0  0  0  0  0  0  0  0  0  0  0  0
   -5.3378    1.3501    0.2119 H   0  0  0  0  0  0  0  0  0  0  0  0
   -5.5914   -1.3291   -1.2316 H   0  0  0  0  0  0  0  0  0  0  0  0
   -5.4627   -1.1092    0.5070 H   0  0  0  0  0  0  0  0  0  0  0  0
   -7.8307   -1.3840   -0.6151 H   0  0  0  0  0  0  0  0  0  0  0  0
   -7.6310   -0.2388    0.7038 H   0  0  0  0  0  0  0  0  0  0  0  0
   -8.8097    0.4403   -1.4517 H   0  0  0  0  0  0  0  0  0  0  0  0
   -6.9177   -0.0281   -2.9345 H   0  0  0  0  0  0  0  0  0  0  0  0
   -7.4981    1.6308   -2.9854 H   0  0  0  0  0  0  0  0  0  0  0  0
   -4.9536    1.3164   -2.7575 H   0  0  0  0  0  0  0  0  0  0  0  0
   -5.7114    2.4886   -1.6988 H   0  0  0  0  0  0  0  0  0  0  0  0
  1  2  1  0
  2  3  1  0
  3  4  2  0
  4  5  1  0
  5  6  2  0
  6  7  1  0
  7  8  2  0
  8  9  1  0
  7 10  1  0
  4 11  1  0
  2 12  1  0
 12 13  1  0
 13 14  2  0
 14 15  1  0
 15 16  2  0
 16 17  1  0
 17 18  2  0
 18 19  1  0
 15 20  1  0
 20 21  1  0
 21 22  2  0
 22 23  1  0
 23 24  1  0
 23 25  1  0
 25 26  1  0
 26 27  1  0
 27 28  1  0
 28 29  1  0
 29 30  1  0
  8  3  1  0
 18 13  1  0
 24 20  2  0
 30 25  1  0
  1 31  1  0
  1 32  1  0
  1 33  1  0
  2 34  1  1
  5 35  1  0
  6 36  1  0
 14 37  1  0
 16 38  1  0
 19 39  1  0
 19 40  1  0
 21 41  1  0
 24 42  1  0
 25 43  1  0
 26 44  1  0
 26 45  1  0
 27 46  1  0
 27 47  1  0
 28 48  1  0
 29 49  1  0
 29 50  1  0
 30 51  1  0
 30 52  1  0
M  END
>  <energy_abs>  (265) 
40.956305938792575

>  <SMILES>  (265) 
C[C@H](c1c(ccc(c1Cl)F)Cl)Oc2cc(cnc2N)c3cnn(c3)C4CCNCC4

>  <cluster_no>  (265) 
265

>  <fda_drugs_id>  (265) 
KTEIFNKAUNYNJU-GFCCVEGCSA-N

>  <initial_conformation_id>  (265) 
9

>  <minimize_method>  (265) 
MMFF

$$$$

     RDKit          3D

 52 55  0  0  0  0  0  0  0  0999 V2000
    3.1987   -2.9301   -0.2200 C   0  0  0  0  0  0  0  0  0  0  0  0
    3.5466   -1.4393   -0.1489 C   0  0  2  0  0  0  0  0  0  0  0  0
    5.0544   -1.2346   -0.0429 C   0  0  0  0  0  0  0  0  0  0  0  0
    5.7696   -1.4140    1.1642 C   0  0  0  0  0  0  0  0  0  0  0  0
    7.1547   -1.1938    1.2316 C   0  0  0  0  0  0  0  0  0  0  0  0
    7.8622   -0.8024    0.1016 C   0  0  0  0  0  0  0  0  0  0  0  0
    7.1849   -0.6452   -1.0981 C   0  0  0  0  0  0  0  0  0  0  0  0
    5.8033   -0.8621   -1.1848 C   0  0  0  0  0  0  0  0  0  0  0  0
    5.0819   -0.6844   -2.7527 Cl  0  0  0  0  0  0  0  0  0  0  0  0
    7.8911   -0.2870   -2.1816 F   0  0  0  0  0  0  0  0  0  0  0  0
    5.0311   -1.9345    2.6417 Cl  0  0  0  0  0  0  0  0  0  0  0  0
    2.8549   -0.8685    0.9830 O   0  0  0  0  0  0  0  0  0  0  0  0
    1.9994    0.1350    0.6112 C   0  0  0  0  0  0  0  0  0  0  0  0
    0.6330   -0.1338    0.6263 C   0  0  0  0  0  0  0  0  0  0  0  0
   -0.2658    0.8657    0.2515 C   0  0  0  0  0  0  0  0  0  0  0  0
    0.2752    2.1007   -0.1005 C   0  0  0  0  0  0  0  0  0  0  0  0
    1.6012    2.3965   -0.0943 N   0  0  0  0  0  0  0  0  0  0  0  0
    2.4434    1.4175    0.2775 C   0  0  0  0  0  0  0  0  0  0  0  0
    3.7990    1.7489    0.2899 N   0  0  0  0  0  0  0  0  0  0  0  0
   -1.6933    0.6149    0.2376 C   0  0  0  0  0  0  0  0  0  0  0  0
   -2.4797   -0.2782    1.0017 C   0  0  0  0  0  0  0  0  0  0  0  0
   -3.7738   -0.2364    0.6762 N   0  0  0  0  0  0  0  0  0  0  0  0
   -3.8251    0.6788   -0.3106 N   0  0  0  0  0  0  0  0  0  0  0  0
   -2.6040    1.2241   -0.6023 C   0  0  0  0  0  0  0  0  0  0  0  0
   -5.0890    0.9829   -0.9699 C   0  0  0  0  0  0  0  0  0  0  0  0
   -6.1143    1.5779    0.0017 C   0  0  0  0  0  0  0  0  0  0  0  0
   -7.4345    1.8427   -0.7133 C   0  0  0  0  0  0  0  0  0  0  0  0
   -7.9538    0.6404   -1.3658 N   0  0  0  0  0  0  0  0  0  0  0  0
   -7.0022    0.0944   -2.3341 C   0  0  0  0  0  0  0  0  0  0  0  0
   -5.6640   -0.2436   -1.6870 C   0  0  0  0  0  0  0  0  0  0  0  0
    3.6834   -3.4134   -1.0752 H   0  0  0  0  0  0  0  0  0  0  0  0
    2.1153   -3.0614   -0.3150 H   0  0  0  0  0  0  0  0  0  0  0  0
    3.4946   -3.4663    0.6889 H   0  0  0  0  0  0  0  0  0  0  0  0
    3.1598   -0.9879   -1.0712 H   0  0  0  0  0  0  0  0  0  0  0  0
    7.6885   -1.3307    2.1704 H   0  0  0  0  0  0  0  0  0  0  0  0
    8.9335   -0.6296    0.1430 H   0  0  0  0  0  0  0  0  0  0  0  0
    0.2922   -1.1254    0.9088 H   0  0  0  0  0  0  0  0  0  0  0  0
   -0.3580    2.9331   -0.3971 H   0  0  0  0  0  0  0  0  0  0  0  0
    4.2051    1.5091    1.1891 H   0  0  0  0  0  0  0  0  0  0  0  0
    3.8618    2.7441    0.0888 H   0  0  0  0  0  0  0  0  0  0  0  0
   -2.1631   -0.9560    1.7843 H   0  0  0  0  0  0  0  0  0  0  0  0
   -2.4932    1.9660   -1.3813 H   0  0  0  0  0  0  0  0  0  0  0  0
   -4.8582    1.7443   -1.7285 H   0  0  0  0  0  0  0  0  0  0  0  0
   -6.2856    0.8989    0.8482 H   0  0  0  0  0  0  0  0  0  0  0  0
   -5.7318    2.5148    0.4267 H   0  0  0  0  0  0  0  0  0  0  0  0
   -8.1752    2.2026    0.0091 H   0  0  0  0  0  0  0  0  0  0  0  0
   -7.3113    2.6410   -1.4563 H   0  0  0  0  0  0  0  0  0  0  0  0
   -8.1518   -0.0683   -0.6560 H   0  0  0  0  0  0  0  0  0  0  0  0
   -6.8602    0.8070   -3.1570 H   0  0  0  0  0  0  0  0  0  0  0  0
   -7.4316   -0.8119   -2.7765 H   0  0  0  0  0  0  0  0  0  0  0  0
   -4.9622   -0.5980   -2.4513 H   0  0  0  0  0  0  0  0  0  0  0  0
   -5.8018   -1.0722   -0.9807 H   0  0  0  0  0  0  0  0  0  0  0  0
  1  2  1  0
  2  3  1  0
  3  4  2  0
  4  5  1  0
  5  6  2  0
  6  7  1  0
  7  8  2  0
  8  9  1  0
  7 10  1  0
  4 11  1  0
  2 12  1  0
 12 13  1  0
 13 14  2  0
 14 15  1  0
 15 16  2  0
 16 17  1  0
 17 18  2  0
 18 19  1  0
 15 20  1  0
 20 21  1  0
 21 22  2  0
 22 23  1  0
 23 24  1  0
 23 25  1  0
 25 26  1  0
 26 27  1  0
 27 28  1  0
 28 29  1  0
 29 30  1  0
  8  3  1  0
 18 13  1  0
 24 20  2  0
 30 25  1  0
  1 31  1  0
  1 32  1  0
  1 33  1  0
  2 34  1  6
  5 35  1  0
  6 36  1  0
 14 37  1  0
 16 38  1  0
 19 39  1  0
 19 40  1  0
 21 41  1  0
 24 42  1  0
 25 43  1  0
 26 44  1  0
 26 45  1  0
 27 46  1  0
 27 47  1  0
 28 48  1  0
 29 49  1  0
 29 50  1  0
 30 51  1  0
 30 52  1  0
M  END
>  <energy_abs>  (266) 
23.404185497642445

>  <SMILES>  (266) 
C[C@H](c1c(ccc(c1Cl)F)Cl)Oc2cc(cnc2N)c3cnn(c3)C4CCNCC4

>  <cluster_no>  (266) 
266

>  <fda_drugs_id>  (266) 
KTEIFNKAUNYNJU-GFCCVEGCSA-N

>  <initial_conformation_id>  (266) 
8

>  <minimize_method>  (266) 
MMFF

$$$$

     RDKit          3D

 52 55  0  0  0  0  0  0  0  0999 V2000
    4.2399    0.4382    2.0276 C   0  0  0  0  0  0  0  0  0  0  0  0
    3.7531   -0.2672    0.7574 C   0  0  2  0  0  0  0  0  0  0  0  0
    4.7728   -1.2895    0.2637 C   0  0  0  0  0  0  0  0  0  0  0  0
    4.5474   -2.6744    0.4494 C   0  0  0  0  0  0  0  0  0  0  0  0
    5.4640   -3.6350   -0.0030 C   0  0  0  0  0  0  0  0  0  0  0  0
    6.6322   -3.2424   -0.6433 C   0  0  0  0  0  0  0  0  0  0  0  0
    6.8833   -1.8901   -0.8222 C   0  0  0  0  0  0  0  0  0  0  0  0
    5.9784   -0.9157   -0.3764 C   0  0  0  0  0  0  0  0  0  0  0  0
    6.4317    0.7373   -0.6399 Cl  0  0  0  0  0  0  0  0  0  0  0  0
    8.0251   -1.5356   -1.4312 F   0  0  0  0  0  0  0  0  0  0  0  0
    3.1450   -3.2944    1.2558 Cl  0  0  0  0  0  0  0  0  0  0  0  0
    3.4947    0.6738   -0.2999 O   0  0  0  0  0  0  0  0  0  0  0  0
    2.3101    1.3545   -0.1896 C   0  0  0  0  0  0  0  0  0  0  0  0
    1.0770    0.7018   -0.1854 C   0  0  0  0  0  0  0  0  0  0  0  0
   -0.0985    1.4513   -0.1108 C   0  0  0  0  0  0  0  0  0  0  0  0
    0.0416    2.8363   -0.0562 C   0  0  0  0  0  0  0  0  0  0  0  0
    1.2266    3.4959   -0.0906 N   0  0  0  0  0  0  0  0  0  0  0  0
    2.3436    2.7558   -0.1754 C   0  0  0  0  0  0  0  0  0  0  0  0
    3.5717    3.4366   -0.2479 N   0  0  0  0  0  0  0  0  0  0  0  0
   -1.3969    0.8032   -0.0949 C   0  0  0  0  0  0  0  0  0  0  0  0
   -1.7746   -0.5012    0.2996 C   0  0  0  0  0  0  0  0  0  0  0  0
   -3.0804   -0.7312    0.1484 N   0  0  0  0  0  0  0  0  0  0  0  0
   -3.5535    0.4251   -0.3508 N   0  0  0  0  0  0  0  0  0  0  0  0
   -2.5814    1.3760   -0.5116 C   0  0  0  0  0  0  0  0  0  0  0  0
   -4.9678    0.5746   -0.6699 C   0  0  0  0  0  0  0  0  0  0  0  0
   -5.8610    0.4096    0.5632 C   0  0  0  0  0  0  0  0  0  0  0  0
   -7.3291    0.5667    0.1796 C   0  0  0  0  0  0  0  0  0  0  0  0
   -7.7062   -0.3624   -0.8830 N   0  0  0  0  0  0  0  0  0  0  0  0
   -6.8943   -0.1905   -2.0857 C   0  0  0  0  0  0  0  0  0  0  0  0
   -5.4095   -0.3743   -1.7881 C   0  0  0  0  0  0  0  0  0  0  0  0
    5.0948    1.0931    1.8405 H   0  0  0  0  0  0  0  0  0  0  0  0
    4.5213   -0.2839    2.8017 H   0  0  0  0  0  0  0  0  0  0  0  0
    3.4499    1.0786    2.4345 H   0  0  0  0  0  0  0  0  0  0  0  0
    2.8204   -0.7759    1.0081 H   0  0  0  0  0  0  0  0  0  0  0  0
    5.2695   -4.6956    0.1448 H   0  0  0  0  0  0  0  0  0  0  0  0
    7.3492   -3.9769   -0.9986 H   0  0  0  0  0  0  0  0  0  0  0  0
    1.0360   -0.3793   -0.2747 H   0  0  0  0  0  0  0  0  0  0  0  0
   -0.8195    3.4938    0.0226 H   0  0  0  0  0  0  0  0  0  0  0  0
    4.1577    3.1262    0.5207 H   0  0  0  0  0  0  0  0  0  0  0  0
    4.0435    3.1271   -1.0954 H   0  0  0  0  0  0  0  0  0  0  0  0
   -1.1548   -1.2948    0.6959 H   0  0  0  0  0  0  0  0  0  0  0  0
   -2.8165    2.3517   -0.9147 H   0  0  0  0  0  0  0  0  0  0  0  0
   -5.0837    1.6048   -1.0356 H   0  0  0  0  0  0  0  0  0  0  0  0
   -5.5972    1.1521    1.3257 H   0  0  0  0  0  0  0  0  0  0  0  0
   -5.7066   -0.5766    1.0204 H   0  0  0  0  0  0  0  0  0  0  0  0
   -7.9521    0.3707    1.0590 H   0  0  0  0  0  0  0  0  0  0  0  0
   -7.5323    1.5982   -0.1330 H   0  0  0  0  0  0  0  0  0  0  0  0
   -8.6922   -0.2382   -1.1140 H   0  0  0  0  0  0  0  0  0  0  0  0
   -7.2045   -0.9304   -2.8318 H   0  0  0  0  0  0  0  0  0  0  0  0
   -7.0749    0.7992   -2.5234 H   0  0  0  0  0  0  0  0  0  0  0  0
   -4.8249   -0.1875   -2.6973 H   0  0  0  0  0  0  0  0  0  0  0  0
   -5.2200   -1.4179   -1.5038 H   0  0  0  0  0  0  0  0  0  0  0  0
  1  2  1  0
  2  3  1  0
  3  4  2  0
  4  5  1  0
  5  6  2  0
  6  7  1  0
  7  8  2  0
  8  9  1  0
  7 10  1  0
  4 11  1  0
  2 12  1  0
 12 13  1  0
 13 14  2  0
 14 15  1  0
 15 16  2  0
 16 17  1  0
 17 18  2  0
 18 19  1  0
 15 20  1  0
 20 21  1  0
 21 22  2  0
 22 23  1  0
 23 24  1  0
 23 25  1  0
 25 26  1  0
 26 27  1  0
 27 28  1  0
 28 29  1  0
 29 30  1  0
  8  3  1  0
 18 13  1  0
 24 20  2  0
 30 25  1  0
  1 31  1  0
  1 32  1  0
  1 33  1  0
  2 34  1  1
  5 35  1  0
  6 36  1  0
 14 37  1  0
 16 38  1  0
 19 39  1  0
 19 40  1  0
 21 41  1  0
 24 42  1  0
 25 43  1  0
 26 44  1  0
 26 45  1  0
 27 46  1  0
 27 47  1  0
 28 48  1  0
 29 49  1  0
 29 50  1  0
 30 51  1  0
 30 52  1  0
M  END
>  <energy_abs>  (267) 
33.796592234926216

>  <SMILES>  (267) 
C[C@H](c1c(ccc(c1Cl)F)Cl)Oc2cc(cnc2N)c3cnn(c3)C4CCNCC4

>  <cluster_no>  (267) 
267

>  <fda_drugs_id>  (267) 
KTEIFNKAUNYNJU-GFCCVEGCSA-N

>  <initial_conformation_id>  (267) 
7

>  <minimize_method>  (267) 
MMFF

$$$$

     RDKit          3D

 52 55  0  0  0  0  0  0  0  0999 V2000
    2.8352   -0.5431    2.0807 C   0  0  0  0  0  0  0  0  0  0  0  0
    3.1567   -0.6147    0.5876 C   0  0  2  0  0  0  0  0  0  0  0  0
    4.4185   -1.4439    0.3496 C   0  0  0  0  0  0  0  0  0  0  0  0
    4.3148   -2.7920   -0.0651 C   0  0  0  0  0  0  0  0  0  0  0  0
    5.4516   -3.5776   -0.3024 C   0  0  0  0  0  0  0  0  0  0  0  0
    6.7208   -3.0457   -0.1230 C   0  0  0  0  0  0  0  0  0  0  0  0
    6.8486   -1.7339    0.3067 C   0  0  0  0  0  0  0  0  0  0  0  0
    5.7234   -0.9345    0.5535 C   0  0  0  0  0  0  0  0  0  0  0  0
    6.0333    0.6652    1.1492 Cl  0  0  0  0  0  0  0  0  0  0  0  0
    8.0871   -1.2492    0.4891 F   0  0  0  0  0  0  0  0  0  0  0  0
    2.7925   -3.5858   -0.2798 Cl  0  0  0  0  0  0  0  0  0  0  0  0
    3.3362    0.6948    0.0447 O   0  0  0  0  0  0  0  0  0  0  0  0
    2.2785    1.3733   -0.4928 C   0  0  0  0  0  0  0  0  0  0  0  0
    0.9306    1.0622   -0.3117 C   0  0  0  0  0  0  0  0  0  0  0  0
   -0.0545    1.8703   -0.8879 C   0  0  0  0  0  0  0  0  0  0  0  0
    0.3726    2.9727   -1.6202 C   0  0  0  0  0  0  0  0  0  0  0  0
    1.6700    3.3080   -1.8114 N   0  0  0  0  0  0  0  0  0  0  0  0
    2.5967    2.5132   -1.2472 C   0  0  0  0  0  0  0  0  0  0  0  0
    3.9254    2.8426   -1.5204 N   0  0  0  0  0  0  0  0  0  0  0  0
   -1.4662    1.5883   -0.7202 C   0  0  0  0  0  0  0  0  0  0  0  0
   -2.5772    2.4569   -0.6334 C   0  0  0  0  0  0  0  0  0  0  0  0
   -3.7323    1.8041   -0.4883 N   0  0  0  0  0  0  0  0  0  0  0  0
   -3.3702    0.5069   -0.4966 N   0  0  0  0  0  0  0  0  0  0  0  0
   -2.0203    0.3279   -0.6277 C   0  0  0  0  0  0  0  0  0  0  0  0
   -4.3757   -0.5438   -0.3537 C   0  0  0  0  0  0  0  0  0  0  0  0
   -5.5388   -0.3822   -1.3458 C   0  0  0  0  0  0  0  0  0  0  0  0
   -6.7623    0.2090   -0.6563 C   0  0  0  0  0  0  0  0  0  0  0  0
   -7.2545   -0.6546    0.4217 N   0  0  0  0  0  0  0  0  0  0  0  0
   -6.2053   -1.3250    1.1864 C   0  0  0  0  0  0  0  0  0  0  0  0
   -4.8504   -0.6370    1.1036 C   0  0  0  0  0  0  0  0  0  0  0  0
    1.9271    0.0410    2.2611 H   0  0  0  0  0  0  0  0  0  0  0  0
    3.6291   -0.0518    2.6481 H   0  0  0  0  0  0  0  0  0  0  0  0
    2.6883   -1.5406    2.5007 H   0  0  0  0  0  0  0  0  0  0  0  0
    2.3263   -1.0893    0.0614 H   0  0  0  0  0  0  0  0  0  0  0  0
    5.3499   -4.6111   -0.6239 H   0  0  0  0  0  0  0  0  0  0  0  0
    7.6100   -3.6426   -0.3051 H   0  0  0  0  0  0  0  0  0  0  0  0
    0.6244    0.2173    0.2926 H   0  0  0  0  0  0  0  0  0  0  0  0
   -0.3333    3.6421   -2.1066 H   0  0  0  0  0  0  0  0  0  0  0  0
    3.9431    3.7550   -1.9623 H   0  0  0  0  0  0  0  0  0  0  0  0
    4.5024    2.7679   -0.6888 H   0  0  0  0  0  0  0  0  0  0  0  0
   -2.5937    3.5390   -0.6607 H   0  0  0  0  0  0  0  0  0  0  0  0
   -1.5856   -0.6611   -0.6560 H   0  0  0  0  0  0  0  0  0  0  0  0
   -3.8586   -1.4788   -0.6122 H   0  0  0  0  0  0  0  0  0  0  0  0
   -5.2558    0.2318   -2.2097 H   0  0  0  0  0  0  0  0  0  0  0  0
   -5.8044   -1.3696   -1.7485 H   0  0  0  0  0  0  0  0  0  0  0  0
   -6.5309    1.2041   -0.2565 H   0  0  0  0  0  0  0  0  0  0  0  0
   -7.5677    0.3435   -1.3858 H   0  0  0  0  0  0  0  0  0  0  0  0
   -7.8379   -0.0950    1.0466 H   0  0  0  0  0  0  0  0  0  0  0  0
   -6.5189   -1.4017    2.2339 H   0  0  0  0  0  0  0  0  0  0  0  0
   -6.1107   -2.3542    0.8193 H   0  0  0  0  0  0  0  0  0  0  0  0
   -4.9244    0.3578    1.5637 H   0  0  0  0  0  0  0  0  0  0  0  0
   -4.1111   -1.1901    1.6958 H   0  0  0  0  0  0  0  0  0  0  0  0
  1  2  1  0
  2  3  1  0
  3  4  2  0
  4  5  1  0
  5  6  2  0
  6  7  1  0
  7  8  2  0
  8  9  1  0
  7 10  1  0
  4 11  1  0
  2 12  1  0
 12 13  1  0
 13 14  2  0
 14 15  1  0
 15 16  2  0
 16 17  1  0
 17 18  2  0
 18 19  1  0
 15 20  1  0
 20 21  1  0
 21 22  2  0
 22 23  1  0
 23 24  1  0
 23 25  1  0
 25 26  1  0
 26 27  1  0
 27 28  1  0
 28 29  1  0
 29 30  1  0
  8  3  1  0
 18 13  1  0
 24 20  2  0
 30 25  1  0
  1 31  1  0
  1 32  1  0
  1 33  1  0
  2 34  1  6
  5 35  1  0
  6 36  1  0
 14 37  1  0
 16 38  1  0
 19 39  1  0
 19 40  1  0
 21 41  1  0
 24 42  1  0
 25 43  1  0
 26 44  1  0
 26 45  1  0
 27 46  1  0
 27 47  1  0
 28 48  1  0
 29 49  1  0
 29 50  1  0
 30 51  1  0
 30 52  1  0
M  END
>  <energy_abs>  (268) 
29.755530233879405

>  <SMILES>  (268) 
C[C@H](c1c(ccc(c1Cl)F)Cl)Oc2cc(cnc2N)c3cnn(c3)C4CCNCC4

>  <cluster_no>  (268) 
268

>  <fda_drugs_id>  (268) 
KTEIFNKAUNYNJU-GFCCVEGCSA-N

>  <initial_conformation_id>  (268) 
5

>  <minimize_method>  (268) 
MMFF

$$$$

     RDKit          3D

 52 55  0  0  0  0  0  0  0  0999 V2000
    5.9188    1.1797   -0.4021 C   0  0  0  0  0  0  0  0  0  0  0  0
    4.4871    0.6390   -0.3213 C   0  0  2  0  0  0  0  0  0  0  0  0
    4.4608   -0.8445    0.0427 C   0  0  0  0  0  0  0  0  0  0  0  0
    4.8374   -1.8592   -0.8704 C   0  0  0  0  0  0  0  0  0  0  0  0
    4.8036   -3.2167   -0.5098 C   0  0  0  0  0  0  0  0  0  0  0  0
    4.4002   -3.5986    0.7659 C   0  0  0  0  0  0  0  0  0  0  0  0
    4.0356   -2.6209    1.6810 C   0  0  0  0  0  0  0  0  0  0  0  0
    4.0635   -1.2607    1.3377 C   0  0  0  0  0  0  0  0  0  0  0  0
    3.5945   -0.1358    2.5729 Cl  0  0  0  0  0  0  0  0  0  0  0  0
    3.6494   -3.0098    2.9072 F   0  0  0  0  0  0  0  0  0  0  0  0
    5.3610   -1.5327   -2.4928 Cl  0  0  0  0  0  0  0  0  0  0  0  0
    3.8327    0.8548   -1.5876 O   0  0  0  0  0  0  0  0  0  0  0  0
    2.6600    1.5488   -1.4416 C   0  0  0  0  0  0  0  0  0  0  0  0
    1.5080    0.8970   -1.0057 C   0  0  0  0  0  0  0  0  0  0  0  0
    0.3209    1.6196   -0.8881 C   0  0  0  0  0  0  0  0  0  0  0  0
    0.3637    2.9698   -1.2372 C   0  0  0  0  0  0  0  0  0  0  0  0
    1.4676    3.6203   -1.6886 N   0  0  0  0  0  0  0  0  0  0  0  0
    2.5964    2.8996   -1.7951 C   0  0  0  0  0  0  0  0  0  0  0  0
    3.7347    3.5870   -2.2190 N   0  0  0  0  0  0  0  0  0  0  0  0
   -0.8923    0.9860   -0.4108 C   0  0  0  0  0  0  0  0  0  0  0  0
   -1.0816   -0.1028    0.4719 C   0  0  0  0  0  0  0  0  0  0  0  0
   -2.3689   -0.4028    0.6544 N   0  0  0  0  0  0  0  0  0  0  0  0
   -3.0171    0.4857   -0.1230 N   0  0  0  0  0  0  0  0  0  0  0  0
   -2.1739    1.3389   -0.7839 C   0  0  0  0  0  0  0  0  0  0  0  0
   -4.4753    0.4720   -0.2083 C   0  0  0  0  0  0  0  0  0  0  0  0
   -4.9724   -0.7341   -1.0210 C   0  0  0  0  0  0  0  0  0  0  0  0
   -6.4259   -1.0390   -0.6800 C   0  0  0  0  0  0  0  0  0  0  0  0
   -6.6179   -1.3864    0.7274 N   0  0  0  0  0  0  0  0  0  0  0  0
   -5.6398   -0.7927    1.6413 C   0  0  0  0  0  0  0  0  0  0  0  0
   -5.1458    0.5709    1.1727 C   0  0  0  0  0  0  0  0  0  0  0  0
    5.9016    2.2642   -0.5690 H   0  0  0  0  0  0  0  0  0  0  0  0
    6.4705    0.9864    0.5254 H   0  0  0  0  0  0  0  0  0  0  0  0
    6.4828    0.7508   -1.2374 H   0  0  0  0  0  0  0  0  0  0  0  0
    3.9879    1.2392    0.4488 H   0  0  0  0  0  0  0  0  0  0  0  0
    5.0934   -3.9838   -1.2276 H   0  0  0  0  0  0  0  0  0  0  0  0
    4.3688   -4.6458    1.0533 H   0  0  0  0  0  0  0  0  0  0  0  0
    1.5442   -0.1641   -0.7779 H   0  0  0  0  0  0  0  0  0  0  0  0
   -0.5134    3.6041   -1.1484 H   0  0  0  0  0  0  0  0  0  0  0  0
    3.4399    4.5128   -2.5176 H   0  0  0  0  0  0  0  0  0  0  0  0
    4.2086    3.0666   -2.9504 H   0  0  0  0  0  0  0  0  0  0  0  0
   -0.3353   -0.6866    0.9949 H   0  0  0  0  0  0  0  0  0  0  0  0
   -2.5543    2.0954   -1.4579 H   0  0  0  0  0  0  0  0  0  0  0  0
   -4.7420    1.3874   -0.7544 H   0  0  0  0  0  0  0  0  0  0  0  0
   -4.8767   -0.5210   -2.0930 H   0  0  0  0  0  0  0  0  0  0  0  0
   -4.3599   -1.6263   -0.8301 H   0  0  0  0  0  0  0  0  0  0  0  0
   -6.7886   -1.8635   -1.3008 H   0  0  0  0  0  0  0  0  0  0  0  0
   -7.0446   -0.1657   -0.9236 H   0  0  0  0  0  0  0  0  0  0  0  0
   -7.5672   -1.1532    1.0174 H   0  0  0  0  0  0  0  0  0  0  0  0
   -4.7963   -1.4843    1.7557 H   0  0  0  0  0  0  0  0  0  0  0  0
   -6.0945   -0.7010    2.6350 H   0  0  0  0  0  0  0  0  0  0  0  0
   -4.4735    1.0090    1.9205 H   0  0  0  0  0  0  0  0  0  0  0  0
   -6.0067    1.2493    1.1036 H   0  0  0  0  0  0  0  0  0  0  0  0
  1  2  1  0
  2  3  1  0
  3  4  2  0
  4  5  1  0
  5  6  2  0
  6  7  1  0
  7  8  2  0
  8  9  1  0
  7 10  1  0
  4 11  1  0
  2 12  1  0
 12 13  1  0
 13 14  2  0
 14 15  1  0
 15 16  2  0
 16 17  1  0
 17 18  2  0
 18 19  1  0
 15 20  1  0
 20 21  1  0
 21 22  2  0
 22 23  1  0
 23 24  1  0
 23 25  1  0
 25 26  1  0
 26 27  1  0
 27 28  1  0
 28 29  1  0
 29 30  1  0
  8  3  1  0
 18 13  1  0
 24 20  2  0
 30 25  1  0
  1 31  1  0
  1 32  1  0
  1 33  1  0
  2 34  1  1
  5 35  1  0
  6 36  1  0
 14 37  1  0
 16 38  1  0
 19 39  1  0
 19 40  1  0
 21 41  1  0
 24 42  1  0
 25 43  1  0
 26 44  1  0
 26 45  1  0
 27 46  1  0
 27 47  1  0
 28 48  1  0
 29 49  1  0
 29 50  1  0
 30 51  1  0
 30 52  1  0
M  END
>  <energy_abs>  (269) 
29.354104020277596

>  <SMILES>  (269) 
C[C@H](c1c(ccc(c1Cl)F)Cl)Oc2cc(cnc2N)c3cnn(c3)C4CCNCC4

>  <cluster_no>  (269) 
269

>  <fda_drugs_id>  (269) 
KTEIFNKAUNYNJU-GFCCVEGCSA-N

>  <initial_conformation_id>  (269) 
4

>  <minimize_method>  (269) 
MMFF

$$$$

     RDKit          3D

 52 55  0  0  0  0  0  0  0  0999 V2000
    3.8194   -1.6079    2.3874 C   0  0  0  0  0  0  0  0  0  0  0  0
    3.6228   -0.9888    1.0012 C   0  0  2  0  0  0  0  0  0  0  0  0
    4.9021   -1.0573    0.1748 C   0  0  0  0  0  0  0  0  0  0  0  0
    5.0291   -2.0073   -0.8656 C   0  0  0  0  0  0  0  0  0  0  0  0
    6.1851   -2.0808   -1.6560 C   0  0  0  0  0  0  0  0  0  0  0  0
    7.2475   -1.2164   -1.4260 C   0  0  0  0  0  0  0  0  0  0  0  0
    7.1523   -0.2878   -0.4004 C   0  0  0  0  0  0  0  0  0  0  0  0
    6.0047   -0.2012    0.4003 C   0  0  0  0  0  0  0  0  0  0  0  0
    6.0289    0.9932    1.6569 Cl  0  0  0  0  0  0  0  0  0  0  0  0
    8.1975    0.5271   -0.1879 F   0  0  0  0  0  0  0  0  0  0  0  0
    3.7935   -3.1657   -1.2303 Cl  0  0  0  0  0  0  0  0  0  0  0  0
    3.1583    0.3656    1.1761 O   0  0  0  0  0  0  0  0  0  0  0  0
    2.1861    0.6894    0.2647 C   0  0  0  0  0  0  0  0  0  0  0  0
    0.8585    0.3594    0.5368 C   0  0  0  0  0  0  0  0  0  0  0  0
   -0.1377    0.7167   -0.3724 C   0  0  0  0  0  0  0  0  0  0  0  0
    0.2723    1.4064   -1.5125 C   0  0  0  0  0  0  0  0  0  0  0  0
    1.5542    1.7632   -1.7867 N   0  0  0  0  0  0  0  0  0  0  0  0
    2.4908    1.4164   -0.8882 C   0  0  0  0  0  0  0  0  0  0  0  0
    3.8012    1.7797   -1.1973 N   0  0  0  0  0  0  0  0  0  0  0  0
   -1.5270    0.3722   -0.1330 C   0  0  0  0  0  0  0  0  0  0  0  0
   -2.1017   -0.6419    0.6684 C   0  0  0  0  0  0  0  0  0  0  0  0
   -3.4362   -0.6332    0.6391 N   0  0  0  0  0  0  0  0  0  0  0  0
   -3.7300    0.3931   -0.1803 N   0  0  0  0  0  0  0  0  0  0  0  0
   -2.6188    1.0268   -0.6666 C   0  0  0  0  0  0  0  0  0  0  0  0
   -5.1174    0.7317   -0.4714 C   0  0  0  0  0  0  0  0  0  0  0  0
   -5.8395   -0.4050   -1.2028 C   0  0  0  0  0  0  0  0  0  0  0  0
   -7.2956   -0.0329   -1.4597 C   0  0  0  0  0  0  0  0  0  0  0  0
   -7.9919    0.3297   -0.2253 N   0  0  0  0  0  0  0  0  0  0  0  0
   -7.3391    1.4488    0.4542 C   0  0  0  0  0  0  0  0  0  0  0  0
   -5.8846    1.1394    0.7912 C   0  0  0  0  0  0  0  0  0  0  0  0
    4.1603   -2.6461    2.3166 H   0  0  0  0  0  0  0  0  0  0  0  0
    4.5403   -1.0515    2.9937 H   0  0  0  0  0  0  0  0  0  0  0  0
    2.8748   -1.5905    2.9428 H   0  0  0  0  0  0  0  0  0  0  0  0
    2.8246   -1.5718    0.5297 H   0  0  0  0  0  0  0  0  0  0  0  0
    6.2598   -2.8156   -2.4553 H   0  0  0  0  0  0  0  0  0  0  0  0
    8.1471   -1.2622   -2.0317 H   0  0  0  0  0  0  0  0  0  0  0  0
    0.6209   -0.1605    1.4596 H   0  0  0  0  0  0  0  0  0  0  0  0
   -0.4360    1.7044   -2.2809 H   0  0  0  0  0  0  0  0  0  0  0  0
    3.7659    2.3810   -2.0152 H   0  0  0  0  0  0  0  0  0  0  0  0
    4.2434    2.2235   -0.3976 H   0  0  0  0  0  0  0  0  0  0  0  0
   -1.6042   -1.3919    1.2697 H   0  0  0  0  0  0  0  0  0  0  0  0
   -2.7068    1.8776   -1.3278 H   0  0  0  0  0  0  0  0  0  0  0  0
   -5.0816    1.6006   -1.1435 H   0  0  0  0  0  0  0  0  0  0  0  0
   -5.7988   -1.3300   -0.6128 H   0  0  0  0  0  0  0  0  0  0  0  0
   -5.3393   -0.6198   -2.1550 H   0  0  0  0  0  0  0  0  0  0  0  0
   -7.8128   -0.8812   -1.9214 H   0  0  0  0  0  0  0  0  0  0  0  0
   -7.3562    0.7957   -2.1757 H   0  0  0  0  0  0  0  0  0  0  0  0
   -8.0055   -0.4785    0.4000 H   0  0  0  0  0  0  0  0  0  0  0  0
   -7.8878    1.6709    1.3760 H   0  0  0  0  0  0  0  0  0  0  0  0
   -7.4025    2.3482   -0.1701 H   0  0  0  0  0  0  0  0  0  0  0  0
   -5.4164    2.0184    1.2508 H   0  0  0  0  0  0  0  0  0  0  0  0
   -5.8477    0.3377    1.5406 H   0  0  0  0  0  0  0  0  0  0  0  0
  1  2  1  0
  2  3  1  0
  3  4  2  0
  4  5  1  0
  5  6  2  0
  6  7  1  0
  7  8  2  0
  8  9  1  0
  7 10  1  0
  4 11  1  0
  2 12  1  0
 12 13  1  0
 13 14  2  0
 14 15  1  0
 15 16  2  0
 16 17  1  0
 17 18  2  0
 18 19  1  0
 15 20  1  0
 20 21  1  0
 21 22  2  0
 22 23  1  0
 23 24  1  0
 23 25  1  0
 25 26  1  0
 26 27  1  0
 27 28  1  0
 28 29  1  0
 29 30  1  0
  8  3  1  0
 18 13  1  0
 24 20  2  0
 30 25  1  0
  1 31  1  0
  1 32  1  0
  1 33  1  0
  2 34  1  6
  5 35  1  0
  6 36  1  0
 14 37  1  0
 16 38  1  0
 19 39  1  0
 19 40  1  0
 21 41  1  0
 24 42  1  0
 25 43  1  0
 26 44  1  0
 26 45  1  0
 27 46  1  0
 27 47  1  0
 28 48  1  0
 29 49  1  0
 29 50  1  0
 30 51  1  0
 30 52  1  0
M  END
>  <energy_abs>  (270) 
23.1912835834994

>  <SMILES>  (270) 
C[C@H](c1c(ccc(c1Cl)F)Cl)Oc2cc(cnc2N)c3cnn(c3)C4CCNCC4

>  <cluster_no>  (270) 
270

>  <fda_drugs_id>  (270) 
KTEIFNKAUNYNJU-GFCCVEGCSA-N

>  <initial_conformation_id>  (270) 
3

>  <minimize_method>  (270) 
MMFF

$$$$

     RDKit          3D

 52 55  0  0  0  0  0  0  0  0999 V2000
    4.3804   -0.8337    2.9177 C   0  0  0  0  0  0  0  0  0  0  0  0
    3.6396   -0.5404    1.6085 C   0  0  2  0  0  0  0  0  0  0  0  0
    4.3857   -1.0841    0.3925 C   0  0  0  0  0  0  0  0  0  0  0  0
    3.8702   -2.1867   -0.3314 C   0  0  0  0  0  0  0  0  0  0  0  0
    4.5370   -2.7046   -1.4540 C   0  0  0  0  0  0  0  0  0  0  0  0
    5.7303   -2.1385   -1.8862 C   0  0  0  0  0  0  0  0  0  0  0  0
    6.2573   -1.0608   -1.1893 C   0  0  0  0  0  0  0  0  0  0  0  0
    5.6049   -0.5303   -0.0661 C   0  0  0  0  0  0  0  0  0  0  0  0
    6.3741    0.8194    0.7058 Cl  0  0  0  0  0  0  0  0  0  0  0  0
    7.4175   -0.5358   -1.6171 F   0  0  0  0  0  0  0  0  0  0  0  0
    2.3962   -2.9884    0.1054 Cl  0  0  0  0  0  0  0  0  0  0  0  0
    3.4184    0.8810    1.5239 O   0  0  0  0  0  0  0  0  0  0  0  0
    2.4282    1.2786    0.6557 C   0  0  0  0  0  0  0  0  0  0  0  0
    1.1536    0.7078    0.6303 C   0  0  0  0  0  0  0  0  0  0  0  0
    0.1909    1.1946   -0.2577 C   0  0  0  0  0  0  0  0  0  0  0  0
    0.5671    2.2518   -1.0808 C   0  0  0  0  0  0  0  0  0  0  0  0
    1.7846    2.8470   -1.0583 N   0  0  0  0  0  0  0  0  0  0  0  0
    2.6936    2.3695   -0.1892 C   0  0  0  0  0  0  0  0  0  0  0  0
    3.9211    3.0522   -0.1097 N   0  0  0  0  0  0  0  0  0  0  0  0
   -1.1420    0.6244   -0.2919 C   0  0  0  0  0  0  0  0  0  0  0  0
   -1.5981   -0.6776    0.0192 C   0  0  0  0  0  0  0  0  0  0  0  0
   -2.9229   -0.8018   -0.0900 N   0  0  0  0  0  0  0  0  0  0  0  0
   -3.3275    0.4229   -0.4757 N   0  0  0  0  0  0  0  0  0  0  0  0
   -2.2939    1.3103   -0.6172 C   0  0  0  0  0  0  0  0  0  0  0  0
   -4.7489    0.7114   -0.6500 C   0  0  0  0  0  0  0  0  0  0  0  0
   -5.3355   -0.0538   -1.8453 C   0  0  0  0  0  0  0  0  0  0  0  0
   -6.8557   -0.1087   -1.7426 C   0  0  0  0  0  0  0  0  0  0  0  0
   -7.3367   -0.7685   -0.5266 N   0  0  0  0  0  0  0  0  0  0  0  0
   -6.3599   -0.8052    0.5632 C   0  0  0  0  0  0  0  0  0  0  0  0
   -5.5448    0.4804    0.6455 C   0  0  0  0  0  0  0  0  0  0  0  0
    4.5936   -1.9028    3.0231 H   0  0  0  0  0  0  0  0  0  0  0  0
    3.7680   -0.5175    3.7703 H   0  0  0  0  0  0  0  0  0  0  0  0
    5.3216   -0.2856    3.0075 H   0  0  0  0  0  0  0  0  0  0  0  0
    2.6786   -1.0385    1.7368 H   0  0  0  0  0  0  0  0  0  0  0  0
    4.1230   -3.5518   -1.9986 H   0  0  0  0  0  0  0  0  0  0  0  0
    6.2531   -2.5275   -2.7560 H   0  0  0  0  0  0  0  0  0  0  0  0
    0.8846   -0.0774    1.3299 H   0  0  0  0  0  0  0  0  0  0  0  0
   -0.1176    2.6796   -1.8097 H   0  0  0  0  0  0  0  0  0  0  0  0
    3.9901    3.4435    0.8265 H   0  0  0  0  0  0  0  0  0  0  0  0
    4.6779    2.3753   -0.1787 H   0  0  0  0  0  0  0  0  0  0  0  0
   -1.0211   -1.5417    0.3222 H   0  0  0  0  0  0  0  0  0  0  0  0
   -2.4722    2.3371   -0.9068 H   0  0  0  0  0  0  0  0  0  0  0  0
   -4.8026    1.7870   -0.8733 H   0  0  0  0  0  0  0  0  0  0  0  0
   -5.0368    0.4331   -2.7813 H   0  0  0  0  0  0  0  0  0  0  0  0
   -4.9422   -1.0770   -1.8963 H   0  0  0  0  0  0  0  0  0  0  0  0
   -7.2678   -0.6323   -2.6127 H   0  0  0  0  0  0  0  0  0  0  0  0
   -7.2538    0.9129   -1.7713 H   0  0  0  0  0  0  0  0  0  0  0  0
   -8.1897   -0.3018   -0.2107 H   0  0  0  0  0  0  0  0  0  0  0  0
   -6.8901   -0.9683    1.5073 H   0  0  0  0  0  0  0  0  0  0  0  0
   -5.7018   -1.6698    0.4281 H   0  0  0  0  0  0  0  0  0  0  0  0
   -4.8924    0.4606    1.5274 H   0  0  0  0  0  0  0  0  0  0  0  0
   -6.2352    1.3227    0.7957 H   0  0  0  0  0  0  0  0  0  0  0  0
  1  2  1  0
  2  3  1  0
  3  4  2  0
  4  5  1  0
  5  6  2  0
  6  7  1  0
  7  8  2  0
  8  9  1  0
  7 10  1  0
  4 11  1  0
  2 12  1  0
 12 13  1  0
 13 14  2  0
 14 15  1  0
 15 16  2  0
 16 17  1  0
 17 18  2  0
 18 19  1  0
 15 20  1  0
 20 21  1  0
 21 22  2  0
 22 23  1  0
 23 24  1  0
 23 25  1  0
 25 26  1  0
 26 27  1  0
 27 28  1  0
 28 29  1  0
 29 30  1  0
  8  3  1  0
 18 13  1  0
 24 20  2  0
 30 25  1  0
  1 31  1  0
  1 32  1  0
  1 33  1  0
  2 34  1  1
  5 35  1  0
  6 36  1  0
 14 37  1  0
 16 38  1  0
 19 39  1  0
 19 40  1  0
 21 41  1  0
 24 42  1  0
 25 43  1  0
 26 44  1  0
 26 45  1  0
 27 46  1  0
 27 47  1  0
 28 48  1  0
 29 49  1  0
 29 50  1  0
 30 51  1  0
 30 52  1  0
M  END
>  <energy_abs>  (271) 
38.94057682062412

>  <SMILES>  (271) 
C[C@H](c1c(ccc(c1Cl)F)Cl)Oc2cc(cnc2N)c3cnn(c3)C4CCNCC4

>  <cluster_no>  (271) 
271

>  <fda_drugs_id>  (271) 
KTEIFNKAUNYNJU-GFCCVEGCSA-N

>  <initial_conformation_id>  (271) 
2

>  <minimize_method>  (271) 
MMFF

$$$$

     RDKit          3D

 52 55  0  0  0  0  0  0  0  0999 V2000
    3.7257   -1.7614    2.3019 C   0  0  0  0  0  0  0  0  0  0  0  0
    3.5426   -1.0452    0.9613 C   0  0  2  0  0  0  0  0  0  0  0  0
    4.8062   -1.1260    0.1124 C   0  0  0  0  0  0  0  0  0  0  0  0
    4.8719   -2.0162   -0.9853 C   0  0  0  0  0  0  0  0  0  0  0  0
    6.0145   -2.1019   -1.7947 C   0  0  0  0  0  0  0  0  0  0  0  0
    7.1220   -1.3072   -1.5294 C   0  0  0  0  0  0  0  0  0  0  0  0
    7.0864   -0.4381   -0.4491 C   0  0  0  0  0  0  0  0  0  0  0  0
    5.9542   -0.3423    0.3728 C   0  0  0  0  0  0  0  0  0  0  0  0
    6.0559    0.7687    1.7003 Cl  0  0  0  0  0  0  0  0  0  0  0  0
    8.1747    0.3079   -0.2033 F   0  0  0  0  0  0  0  0  0  0  0  0
    3.5735   -3.0852   -1.4019 Cl  0  0  0  0  0  0  0  0  0  0  0  0
    3.1516    0.3163    1.2319 O   0  0  0  0  0  0  0  0  0  0  0  0
    2.1976    0.7578    0.3509 C   0  0  0  0  0  0  0  0  0  0  0  0
    0.8554    0.4613    0.5894 C   0  0  0  0  0  0  0  0  0  0  0  0
   -0.1228    0.9427   -0.2828 C   0  0  0  0  0  0  0  0  0  0  0  0
    0.3236    1.7237   -1.3486 C   0  0  0  0  0  0  0  0  0  0  0  0
    1.6218    2.0455   -1.5902 N   0  0  0  0  0  0  0  0  0  0  0  0
    2.5389    1.5740   -0.7295 C   0  0  0  0  0  0  0  0  0  0  0  0
    3.8654    1.9051   -1.0041 N   0  0  0  0  0  0  0  0  0  0  0  0
   -1.5293    0.6445   -0.0696 C   0  0  0  0  0  0  0  0  0  0  0  0
   -2.2019    0.1245    1.0625 C   0  0  0  0  0  0  0  0  0  0  0  0
   -3.5141   -0.0205    0.8683 N   0  0  0  0  0  0  0  0  0  0  0  0
   -3.7002    0.4149   -0.3906 N   0  0  0  0  0  0  0  0  0  0  0  0
   -2.5388    0.8145   -0.9964 C   0  0  0  0  0  0  0  0  0  0  0  0
   -5.0367    0.4333   -0.9794 C   0  0  0  0  0  0  0  0  0  0  0  0
   -5.7498   -0.9253   -0.8724 C   0  0  0  0  0  0  0  0  0  0  0  0
   -6.7671   -0.9241    0.2632 C   0  0  0  0  0  0  0  0  0  0  0  0
   -7.8021    0.0978    0.0974 N   0  0  0  0  0  0  0  0  0  0  0  0
   -7.3602    1.3082   -0.5922 C   0  0  0  0  0  0  0  0  0  0  0  0
   -5.8739    1.5852   -0.4040 C   0  0  0  0  0  0  0  0  0  0  0  0
    4.4790   -1.2792    2.9324 H   0  0  0  0  0  0  0  0  0  0  0  0
    2.7894   -1.7371    2.8715 H   0  0  0  0  0  0  0  0  0  0  0  0
    4.0171   -2.8074    2.1602 H   0  0  0  0  0  0  0  0  0  0  0  0
    2.7091   -1.5545    0.4662 H   0  0  0  0  0  0  0  0  0  0  0  0
    6.0430   -2.7909   -2.6362 H   0  0  0  0  0  0  0  0  0  0  0  0
    8.0115   -1.3627   -2.1492 H   0  0  0  0  0  0  0  0  0  0  0  0
    0.5965   -0.1448    1.4521 H   0  0  0  0  0  0  0  0  0  0  0  0
   -0.3669    2.1486   -2.0713 H   0  0  0  0  0  0  0  0  0  0  0  0
    4.3239    2.2540   -0.1679 H   0  0  0  0  0  0  0  0  0  0  0  0
    3.8605    2.5795   -1.7633 H   0  0  0  0  0  0  0  0  0  0  0  0
   -1.7925   -0.1535    2.0251 H   0  0  0  0  0  0  0  0  0  0  0  0
   -2.5420    1.1741   -2.0158 H   0  0  0  0  0  0  0  0  0  0  0  0
   -4.8775    0.6252   -2.0499 H   0  0  0  0  0  0  0  0  0  0  0  0
   -5.0372   -1.7487   -0.7421 H   0  0  0  0  0  0  0  0  0  0  0  0
   -6.2781   -1.1252   -1.8148 H   0  0  0  0  0  0  0  0  0  0  0  0
   -7.2476   -1.9066    0.3302 H   0  0  0  0  0  0  0  0  0  0  0  0
   -6.2632   -0.7651    1.2235 H   0  0  0  0  0  0  0  0  0  0  0  0
   -8.6203   -0.2902   -0.3695 H   0  0  0  0  0  0  0  0  0  0  0  0
   -7.5784    1.2162   -1.6637 H   0  0  0  0  0  0  0  0  0  0  0  0
   -7.9459    2.1567   -0.2219 H   0  0  0  0  0  0  0  0  0  0  0  0
   -5.6001    2.5239   -0.9020 H   0  0  0  0  0  0  0  0  0  0  0  0
   -5.6654    1.7354    0.6635 H   0  0  0  0  0  0  0  0  0  0  0  0
  1  2  1  0
  2  3  1  0
  3  4  2  0
  4  5  1  0
  5  6  2  0
  6  7  1  0
  7  8  2  0
  8  9  1  0
  7 10  1  0
  4 11  1  0
  2 12  1  0
 12 13  1  0
 13 14  2  0
 14 15  1  0
 15 16  2  0
 16 17  1  0
 17 18  2  0
 18 19  1  0
 15 20  1  0
 20 21  1  0
 21 22  2  0
 22 23  1  0
 23 24  1  0
 23 25  1  0
 25 26  1  0
 26 27  1  0
 27 28  1  0
 28 29  1  0
 29 30  1  0
  8  3  1  0
 18 13  1  0
 24 20  2  0
 30 25  1  0
  1 31  1  0
  1 32  1  0
  1 33  1  0
  2 34  1  6
  5 35  1  0
  6 36  1  0
 14 37  1  0
 16 38  1  0
 19 39  1  0
 19 40  1  0
 21 41  1  0
 24 42  1  0
 25 43  1  0
 26 44  1  0
 26 45  1  0
 27 46  1  0
 27 47  1  0
 28 48  1  0
 29 49  1  0
 29 50  1  0
 30 51  1  0
 30 52  1  0
M  END
>  <energy_abs>  (272) 
28.654451443640045

>  <SMILES>  (272) 
C[C@H](c1c(ccc(c1Cl)F)Cl)Oc2cc(cnc2N)c3cnn(c3)C4CCNCC4

>  <cluster_no>  (272) 
272

>  <fda_drugs_id>  (272) 
KTEIFNKAUNYNJU-GFCCVEGCSA-N

>  <initial_conformation_id>  (272) 
1

>  <minimize_method>  (272) 
MMFF

$$$$

     RDKit          3D

 52 55  0  0  0  0  0  0  0  0999 V2000
    3.3110    0.1676    1.8923 C   0  0  0  0  0  0  0  0  0  0  0  0
    3.3703   -0.2226    0.4131 C   0  0  2  0  0  0  0  0  0  0  0  0
    4.6386   -1.0231    0.1111 C   0  0  0  0  0  0  0  0  0  0  0  0
    5.9152   -0.4219    0.0068 C   0  0  0  0  0  0  0  0  0  0  0  0
    7.0615   -1.1846   -0.2705 C   0  0  0  0  0  0  0  0  0  0  0  0
    6.9700   -2.5612   -0.4441 C   0  0  0  0  0  0  0  0  0  0  0  0
    5.7321   -3.1745   -0.3291 C   0  0  0  0  0  0  0  0  0  0  0  0
    4.5774   -2.4301   -0.0493 C   0  0  0  0  0  0  0  0  0  0  0  0
    3.0966   -3.3229    0.1098 Cl  0  0  0  0  0  0  0  0  0  0  0  0
    5.6661   -4.5062   -0.4848 F   0  0  0  0  0  0  0  0  0  0  0  0
    6.1909    1.2728    0.2273 Cl  0  0  0  0  0  0  0  0  0  0  0  0
    3.3233    0.9245   -0.4453 O   0  0  0  0  0  0  0  0  0  0  0  0
    2.1550    1.6321   -0.5578 C   0  0  0  0  0  0  0  0  0  0  0  0
    0.8724    1.0949   -0.4336 C   0  0  0  0  0  0  0  0  0  0  0  0
   -0.2496    1.9142   -0.6115 C   0  0  0  0  0  0  0  0  0  0  0  0
   -0.0157    3.2498   -0.9242 C   0  0  0  0  0  0  0  0  0  0  0  0
    1.2129    3.8013   -1.0657 N   0  0  0  0  0  0  0  0  0  0  0  0
    2.2724    2.9914   -0.8876 C   0  0  0  0  0  0  0  0  0  0  0  0
    3.5210    3.6081   -0.9613 N   0  0  0  0  0  0  0  0  0  0  0  0
   -1.6029    1.4073   -0.4747 C   0  0  0  0  0  0  0  0  0  0  0  0
   -2.8051    2.0682   -0.1278 C   0  0  0  0  0  0  0  0  0  0  0  0
   -3.8610    1.2510   -0.1204 N   0  0  0  0  0  0  0  0  0  0  0  0
   -3.3446    0.0547   -0.4695 N   0  0  0  0  0  0  0  0  0  0  0  0
   -1.9930    0.1006   -0.6862 C   0  0  0  0  0  0  0  0  0  0  0  0
   -4.1954   -1.1315   -0.5864 C   0  0  0  0  0  0  0  0  0  0  0  0
   -5.5021   -0.8601   -1.3540 C   0  0  0  0  0  0  0  0  0  0  0  0
   -6.7193   -0.7645   -0.4298 C   0  0  0  0  0  0  0  0  0  0  0  0
   -6.3926   -0.1226    0.8380 N   0  0  0  0  0  0  0  0  0  0  0  0
   -5.4452   -0.9207    1.6215 C   0  0  0  0  0  0  0  0  0  0  0  0
   -4.4757   -1.7592    0.7827 C   0  0  0  0  0  0  0  0  0  0  0  0
    2.3591    0.6541    2.1300 H   0  0  0  0  0  0  0  0  0  0  0  0
    3.4137   -0.7092    2.5412 H   0  0  0  0  0  0  0  0  0  0  0  0
    4.0939    0.8840    2.1616 H   0  0  0  0  0  0  0  0  0  0  0  0
    2.5092   -0.8485    0.1811 H   0  0  0  0  0  0  0  0  0  0  0  0
    8.0350   -0.7028   -0.3481 H   0  0  0  0  0  0  0  0  0  0  0  0
    7.8519   -3.1574   -0.6592 H   0  0  0  0  0  0  0  0  0  0  0  0
    0.7238    0.0471   -0.1996 H   0  0  0  0  0  0  0  0  0  0  0  0
   -0.8322    3.9484   -1.0885 H   0  0  0  0  0  0  0  0  0  0  0  0
    4.1888    3.0397   -1.4707 H   0  0  0  0  0  0  0  0  0  0  0  0
    3.3973    4.5471   -1.3236 H   0  0  0  0  0  0  0  0  0  0  0  0
   -2.9576    3.1113    0.1260 H   0  0  0  0  0  0  0  0  0  0  0  0
   -1.4455   -0.7834   -0.9794 H   0  0  0  0  0  0  0  0  0  0  0  0
   -3.6042   -1.8419   -1.1797 H   0  0  0  0  0  0  0  0  0  0  0  0
   -5.6812   -1.6864   -2.0537 H   0  0  0  0  0  0  0  0  0  0  0  0
   -5.4194    0.0455   -1.9681 H   0  0  0  0  0  0  0  0  0  0  0  0
   -7.5073   -0.1924   -0.9319 H   0  0  0  0  0  0  0  0  0  0  0  0
   -7.1402   -1.7613   -0.2445 H   0  0  0  0  0  0  0  0  0  0  0  0
   -5.9238    0.7706    0.6223 H   0  0  0  0  0  0  0  0  0  0  0  0
   -6.0046   -1.5831    2.2907 H   0  0  0  0  0  0  0  0  0  0  0  0
   -4.8797   -0.2457    2.2733 H   0  0  0  0  0  0  0  0  0  0  0  0
   -3.5460   -1.9155    1.3428 H   0  0  0  0  0  0  0  0  0  0  0  0
   -4.9159   -2.7527    0.6223 H   0  0  0  0  0  0  0  0  0  0  0  0
  1  2  1  0
  2  3  1  0
  3  4  2  0
  4  5  1  0
  5  6  2  0
  6  7  1  0
  7  8  2  0
  8  9  1  0
  7 10  1  0
  4 11  1  0
  2 12  1  0
 12 13  1  0
 13 14  2  0
 14 15  1  0
 15 16  2  0
 16 17  1  0
 17 18  2  0
 18 19  1  0
 15 20  1  0
 20 21  1  0
 21 22  2  0
 22 23  1  0
 23 24  1  0
 23 25  1  0
 25 26  1  0
 26 27  1  0
 27 28  1  0
 28 29  1  0
 29 30  1  0
  8  3  1  0
 18 13  1  0
 24 20  2  0
 30 25  1  0
  1 31  1  0
  1 32  1  0
  1 33  1  0
  2 34  1  6
  5 35  1  0
  6 36  1  0
 14 37  1  0
 16 38  1  0
 19 39  1  0
 19 40  1  0
 21 41  1  0
 24 42  1  0
 25 43  1  0
 26 44  1  0
 26 45  1  0
 27 46  1  0
 27 47  1  0
 28 48  1  0
 29 49  1  0
 29 50  1  0
 30 51  1  0
 30 52  1  0
M  END
>  <energy_abs>  (273) 
31.29515353605788

>  <SMILES>  (273) 
C[C@H](c1c(ccc(c1Cl)F)Cl)Oc2cc(cnc2N)c3cnn(c3)C4CCNCC4

>  <cluster_no>  (273) 
273

>  <fda_drugs_id>  (273) 
KTEIFNKAUNYNJU-GFCCVEGCSA-N

>  <initial_conformation_id>  (273) 
0

>  <minimize_method>  (273) 
MMFF

$$$$
