
     RDKit          3D

 43 45  0  0  0  0  0  0  0  0999 V2000
    0.1436   -0.3655    3.1805 C   0  0  0  0  0  0  0  0  0  0  0  0
    0.4934   -0.4560    1.6922 C   0  0  2  0  0  0  0  0  0  0  0  0
    2.0345   -0.5706    1.5663 C   0  0  0  0  0  0  0  0  0  0  0  0
    2.6002    0.0913    0.3137 C   0  0  0  0  0  0  0  0  0  0  0  0
    2.2446    1.5115    0.2638 N   0  0  0  0  0  0  0  0  0  0  0  0
    0.9123    1.8806    0.7669 C   0  0  0  0  0  0  0  0  0  0  0  0
   -0.0651    0.6854    0.7939 C   0  0  2  0  0  0  0  0  0  0  0  0
   -1.4698    1.0789    1.0398 N   0  0  0  0  0  0  0  0  0  0  0  0
   -1.7836    2.0583    2.0776 C   0  0  0  0  0  0  0  0  0  0  0  0
   -2.4368    0.0707    0.9050 C   0  0  0  0  0  0  0  0  0  0  0  0
   -2.6141   -0.7164   -0.2583 C   0  0  0  0  0  0  0  0  0  0  0  0
   -2.0608   -0.7799   -1.5736 C   0  0  0  0  0  0  0  0  0  0  0  0
   -2.6876   -1.8011   -2.2565 C   0  0  0  0  0  0  0  0  0  0  0  0
   -3.6192   -2.3482   -1.4147 N   0  0  0  0  0  0  0  0  0  0  0  0
   -3.6011   -1.6919   -0.2148 C   0  0  0  0  0  0  0  0  0  0  0  0
   -4.4245   -1.9720    0.8034 N   0  0  0  0  0  0  0  0  0  0  0  0
   -4.2115   -1.1447    1.8351 C   0  0  0  0  0  0  0  0  0  0  0  0
   -3.2960   -0.1627    1.9376 N   0  0  0  0  0  0  0  0  0  0  0  0
    3.0810    2.5397   -0.1707 C   0  0  0  0  0  0  0  0  0  0  0  0
    2.7382    3.7180   -0.0743 O   0  0  0  0  0  0  0  0  0  0  0  0
    4.4226    2.1364   -0.7488 C   0  0  0  0  0  0  0  0  0  0  0  0
    5.1174    3.2582   -1.3866 C   0  0  0  0  0  0  0  0  0  0  0  0
    5.7245    4.0983   -1.9115 N   0  0  0  0  0  0  0  0  0  0  0  0
    0.6500   -1.1580    3.7433 H   0  0  0  0  0  0  0  0  0  0  0  0
   -0.9270   -0.4995    3.3526 H   0  0  0  0  0  0  0  0  0  0  0  0
    0.4513    0.5952    3.6061 H   0  0  0  0  0  0  0  0  0  0  0  0
    0.0643   -1.3991    1.3254 H   0  0  0  0  0  0  0  0  0  0  0  0
    2.3200   -1.6296    1.5840 H   0  0  0  0  0  0  0  0  0  0  0  0
    2.5161   -0.1069    2.4380 H   0  0  0  0  0  0  0  0  0  0  0  0
    2.2024   -0.3818   -0.5912 H   0  0  0  0  0  0  0  0  0  0  0  0
    3.6852   -0.0368    0.2994 H   0  0  0  0  0  0  0  0  0  0  0  0
    0.5089    2.6849    0.1407 H   0  0  0  0  0  0  0  0  0  0  0  0
    1.0596    2.2911    1.7732 H   0  0  0  0  0  0  0  0  0  0  0  0
   -0.0273    0.2978   -0.2304 H   0  0  0  0  0  0  0  0  0  0  0  0
   -1.1252    2.9292    2.0129 H   0  0  0  0  0  0  0  0  0  0  0  0
   -1.6978    1.6470    3.0867 H   0  0  0  0  0  0  0  0  0  0  0  0
   -2.8008    2.4490    1.9484 H   0  0  0  0  0  0  0  0  0  0  0  0
   -1.2984   -0.1333   -1.9860 H   0  0  0  0  0  0  0  0  0  0  0  0
   -2.5658   -2.1689   -3.2663 H   0  0  0  0  0  0  0  0  0  0  0  0
   -4.2553   -3.1020   -1.6295 H   0  0  0  0  0  0  0  0  0  0  0  0
   -4.8571   -1.2793    2.6972 H   0  0  0  0  0  0  0  0  0  0  0  0
    5.0431    1.7421    0.0629 H   0  0  0  0  0  0  0  0  0  0  0  0
    4.2684    1.3468   -1.4925 H   0  0  0  0  0  0  0  0  0  0  0  0
  1  2  1  0
  2  3  1  0
  3  4  1  0
  4  5  1  0
  5  6  1  0
  6  7  1  0
  7  8  1  0
  8  9  1  0
  8 10  1  0
 10 11  2  0
 11 12  1  0
 12 13  2  0
 13 14  1  0
 14 15  1  0
 15 16  2  0
 16 17  1  0
 17 18  2  0
  5 19  1  0
 19 20  2  0
 19 21  1  0
 21 22  1  0
 22 23  3  0
  7  2  1  0
 18 10  1  0
 15 11  1  0
  1 24  1  0
  1 25  1  0
  1 26  1  0
  2 27  1  6
  3 28  1  0
  3 29  1  0
  4 30  1  0
  4 31  1  0
  6 32  1  0
  6 33  1  0
  7 34  1  6
  9 35  1  0
  9 36  1  0
  9 37  1  0
 12 38  1  0
 13 39  1  0
 14 40  1  0
 17 41  1  0
 21 42  1  0
 21 43  1  0
M  END
>  <energy_abs>  (1) 
18.420831544863717

>  <SMILES>  (1) 
C[C@@H]1CCN(C[C@@H]1N(C)c2c3cc[nH]c3ncn2)C(=O)CC#N

>  <cluster_no>  (1) 
1

>  <fda_drugs_id>  (1) 
UJLAWZDWDVHWOW-YPMHNXCESA-N

>  <initial_conformation_id>  (1) 
116

>  <minimize_method>  (1) 
MMFF

$$$$

     RDKit          3D

 43 45  0  0  0  0  0  0  0  0999 V2000
    2.5798   -0.1245   -1.5258 C   0  0  0  0  0  0  0  0  0  0  0  0
    1.5715    0.9599   -1.9385 C   0  0  2  0  0  0  0  0  0  0  0  0
    2.2026    2.3621   -1.7683 C   0  0  0  0  0  0  0  0  0  0  0  0
    1.6579    3.1537   -0.5806 C   0  0  0  0  0  0  0  0  0  0  0  0
    1.4142    2.2838    0.5616 N   0  0  0  0  0  0  0  0  0  0  0  0
    0.4797    1.1714    0.3336 C   0  0  0  0  0  0  0  0  0  0  0  0
    0.2214    0.8552   -1.1711 C   0  0  2  0  0  0  0  0  0  0  0  0
   -0.4185   -0.4783   -1.3594 N   0  0  0  0  0  0  0  0  0  0  0  0
   -0.7204   -0.8418   -2.7510 C   0  0  0  0  0  0  0  0  0  0  0  0
   -1.6397   -0.5880   -0.6467 C   0  0  0  0  0  0  0  0  0  0  0  0
   -2.0230   -1.7891   -0.0210 C   0  0  0  0  0  0  0  0  0  0  0  0
   -1.4657   -3.0897    0.1407 C   0  0  0  0  0  0  0  0  0  0  0  0
   -2.3551   -3.8386    0.8833 C   0  0  0  0  0  0  0  0  0  0  0  0
   -3.4278   -3.0362    1.1809 N   0  0  0  0  0  0  0  0  0  0  0  0
   -3.2410   -1.7938    0.6388 C   0  0  0  0  0  0  0  0  0  0  0  0
   -4.1052   -0.7752    0.7467 N   0  0  0  0  0  0  0  0  0  0  0  0
   -3.6424    0.3201    0.1220 C   0  0  0  0  0  0  0  0  0  0  0  0
   -2.4860    0.4711   -0.5567 N   0  0  0  0  0  0  0  0  0  0  0  0
    1.8019    2.5365    1.8780 C   0  0  0  0  0  0  0  0  0  0  0  0
    1.4134    1.8241    2.8038 O   0  0  0  0  0  0  0  0  0  0  0  0
    2.7237    3.7160    2.1071 C   0  0  0  0  0  0  0  0  0  0  0  0
    3.1562    3.8312    3.5028 C   0  0  0  0  0  0  0  0  0  0  0  0
    3.5445    3.9884    4.5860 N   0  0  0  0  0  0  0  0  0  0  0  0
    3.4793   -0.0635   -2.1485 H   0  0  0  0  0  0  0  0  0  0  0  0
    2.1657   -1.1291   -1.6543 H   0  0  0  0  0  0  0  0  0  0  0  0
    2.8937   -0.0173   -0.4828 H   0  0  0  0  0  0  0  0  0  0  0  0
    1.3895    0.8266   -3.0120 H   0  0  0  0  0  0  0  0  0  0  0  0
    2.0290    2.9512   -2.6778 H   0  0  0  0  0  0  0  0  0  0  0  0
    3.2924    2.2755   -1.6735 H   0  0  0  0  0  0  0  0  0  0  0  0
    0.7005    3.6230   -0.8383 H   0  0  0  0  0  0  0  0  0  0  0  0
    2.3459    3.9676   -0.3426 H   0  0  0  0  0  0  0  0  0  0  0  0
    0.8703    0.2870    0.8531 H   0  0  0  0  0  0  0  0  0  0  0  0
   -0.4565    1.4416    0.8359 H   0  0  0  0  0  0  0  0  0  0  0  0
   -0.4383    1.6327   -1.5845 H   0  0  0  0  0  0  0  0  0  0  0  0
   -1.2705   -1.7889   -2.8179 H   0  0  0  0  0  0  0  0  0  0  0  0
   -1.3034   -0.0622   -3.2561 H   0  0  0  0  0  0  0  0  0  0  0  0
    0.2048   -0.9976   -3.3144 H   0  0  0  0  0  0  0  0  0  0  0  0
   -0.5120   -3.4277   -0.2436 H   0  0  0  0  0  0  0  0  0  0  0  0
   -2.3146   -4.8626    1.2301 H   0  0  0  0  0  0  0  0  0  0  0  0
   -4.2399   -3.2963    1.7214 H   0  0  0  0  0  0  0  0  0  0  0  0
   -4.2812    1.1970    0.1675 H   0  0  0  0  0  0  0  0  0  0  0  0
    2.1959    4.6315    1.8192 H   0  0  0  0  0  0  0  0  0  0  0  0
    3.6083    3.5993    1.4717 H   0  0  0  0  0  0  0  0  0  0  0  0
  1  2  1  0
  2  3  1  0
  3  4  1  0
  4  5  1  0
  5  6  1  0
  6  7  1  0
  7  8  1  0
  8  9  1  0
  8 10  1  0
 10 11  2  0
 11 12  1  0
 12 13  2  0
 13 14  1  0
 14 15  1  0
 15 16  2  0
 16 17  1  0
 17 18  2  0
  5 19  1  0
 19 20  2  0
 19 21  1  0
 21 22  1  0
 22 23  3  0
  7  2  1  0
 18 10  1  0
 15 11  1  0
  1 24  1  0
  1 25  1  0
  1 26  1  0
  2 27  1  6
  3 28  1  0
  3 29  1  0
  4 30  1  0
  4 31  1  0
  6 32  1  0
  6 33  1  0
  7 34  1  6
  9 35  1  0
  9 36  1  0
  9 37  1  0
 12 38  1  0
 13 39  1  0
 14 40  1  0
 17 41  1  0
 21 42  1  0
 21 43  1  0
M  END
>  <energy_abs>  (2) 
15.520122700200242

>  <SMILES>  (2) 
C[C@@H]1CCN(C[C@@H]1N(C)c2c3cc[nH]c3ncn2)C(=O)CC#N

>  <cluster_no>  (2) 
2

>  <fda_drugs_id>  (2) 
UJLAWZDWDVHWOW-YPMHNXCESA-N

>  <initial_conformation_id>  (2) 
289

>  <minimize_method>  (2) 
MMFF

$$$$

     RDKit          3D

 43 45  0  0  0  0  0  0  0  0999 V2000
    0.2677    0.8814   -2.6580 C   0  0  0  0  0  0  0  0  0  0  0  0
   -0.0712    2.1003   -1.7979 C   0  0  2  0  0  0  0  0  0  0  0  0
    1.0802    3.1241   -1.8260 C   0  0  0  0  0  0  0  0  0  0  0  0
    2.2969    2.6889   -1.0086 C   0  0  0  0  0  0  0  0  0  0  0  0
    1.9499    2.2947    0.3592 N   0  0  0  0  0  0  0  0  0  0  0  0
    0.8404    1.3295    0.4747 C   0  0  0  0  0  0  0  0  0  0  0  0
   -0.4006    1.7876   -0.3197 C   0  0  2  0  0  0  0  0  0  0  0  0
   -1.6335    0.9889   -0.1364 N   0  0  0  0  0  0  0  0  0  0  0  0
   -2.8923    1.7055   -0.2964 C   0  0  0  0  0  0  0  0  0  0  0  0
   -1.6474   -0.4006   -0.1003 C   0  0  0  0  0  0  0  0  0  0  0  0
   -2.7763   -1.2227    0.1811 C   0  0  0  0  0  0  0  0  0  0  0  0
   -4.1542   -1.0488    0.5296 C   0  0  0  0  0  0  0  0  0  0  0  0
   -4.7325   -2.2923    0.6769 C   0  0  0  0  0  0  0  0  0  0  0  0
   -3.7620   -3.2249    0.4389 N   0  0  0  0  0  0  0  0  0  0  0  0
   -2.5807   -2.5998    0.1509 C   0  0  0  0  0  0  0  0  0  0  0  0
   -1.4456   -3.2586   -0.1098 N   0  0  0  0  0  0  0  0  0  0  0  0
   -0.4417   -2.4094   -0.3423 C   0  0  0  0  0  0  0  0  0  0  0  0
   -0.4808   -1.0635   -0.3397 N   0  0  0  0  0  0  0  0  0  0  0  0
    2.9576    2.4095    1.3272 C   0  0  0  0  0  0  0  0  0  0  0  0
    4.0339    2.9498    1.0706 O   0  0  0  0  0  0  0  0  0  0  0  0
    2.6494    1.8532    2.7036 C   0  0  0  0  0  0  0  0  0  0  0  0
    3.6992    2.1586    3.6800 C   0  0  0  0  0  0  0  0  0  0  0  0
    4.4857    2.3671    4.5084 N   0  0  0  0  0  0  0  0  0  0  0  0
    0.5530    1.1938   -3.6687 H   0  0  0  0  0  0  0  0  0  0  0  0
    1.0962    0.2975   -2.2478 H   0  0  0  0  0  0  0  0  0  0  0  0
   -0.6000    0.2237   -2.7641 H   0  0  0  0  0  0  0  0  0  0  0  0
   -0.9443    2.5783   -2.2613 H   0  0  0  0  0  0  0  0  0  0  0  0
    0.7094    4.0737   -1.4173 H   0  0  0  0  0  0  0  0  0  0  0  0
    1.3847    3.3299   -2.8588 H   0  0  0  0  0  0  0  0  0  0  0  0
    2.7971    1.8340   -1.4787 H   0  0  0  0  0  0  0  0  0  0  0  0
    3.0198    3.5121   -0.9905 H   0  0  0  0  0  0  0  0  0  0  0  0
    0.5585    1.1896    1.5214 H   0  0  0  0  0  0  0  0  0  0  0  0
    1.2571    0.3824    0.1245 H   0  0  0  0  0  0  0  0  0  0  0  0
   -0.6371    2.7649    0.1314 H   0  0  0  0  0  0  0  0  0  0  0  0
   -2.7309    2.7513   -0.5824 H   0  0  0  0  0  0  0  0  0  0  0  0
   -3.5120    1.2646   -1.0849 H   0  0  0  0  0  0  0  0  0  0  0  0
   -3.4413    1.7295    0.6496 H   0  0  0  0  0  0  0  0  0  0  0  0
   -4.6849   -0.1184    0.6686 H   0  0  0  0  0  0  0  0  0  0  0  0
   -5.7411   -2.5885    0.9329 H   0  0  0  0  0  0  0  0  0  0  0  0
   -3.8696   -4.2284    0.4739 H   0  0  0  0  0  0  0  0  0  0  0  0
    0.5235   -2.8557   -0.5596 H   0  0  0  0  0  0  0  0  0  0  0  0
    1.7065    2.2855    3.0552 H   0  0  0  0  0  0  0  0  0  0  0  0
    2.5375    0.7667    2.6248 H   0  0  0  0  0  0  0  0  0  0  0  0
  1  2  1  0
  2  3  1  0
  3  4  1  0
  4  5  1  0
  5  6  1  0
  6  7  1  0
  7  8  1  0
  8  9  1  0
  8 10  1  0
 10 11  2  0
 11 12  1  0
 12 13  2  0
 13 14  1  0
 14 15  1  0
 15 16  2  0
 16 17  1  0
 17 18  2  0
  5 19  1  0
 19 20  2  0
 19 21  1  0
 21 22  1  0
 22 23  3  0
  7  2  1  0
 18 10  1  0
 15 11  1  0
  1 24  1  0
  1 25  1  0
  1 26  1  0
  2 27  1  6
  3 28  1  0
  3 29  1  0
  4 30  1  0
  4 31  1  0
  6 32  1  0
  6 33  1  0
  7 34  1  1
  9 35  1  0
  9 36  1  0
  9 37  1  0
 12 38  1  0
 13 39  1  0
 14 40  1  0
 17 41  1  0
 21 42  1  0
 21 43  1  0
M  END
>  <energy_abs>  (3) 
12.617119915275849

>  <SMILES>  (3) 
C[C@@H]1CCN(C[C@@H]1N(C)c2c3cc[nH]c3ncn2)C(=O)CC#N

>  <cluster_no>  (3) 
3

>  <fda_drugs_id>  (3) 
UJLAWZDWDVHWOW-YPMHNXCESA-N

>  <initial_conformation_id>  (3) 
287

>  <minimize_method>  (3) 
MMFF

$$$$

     RDKit          3D

 43 45  0  0  0  0  0  0  0  0999 V2000
   -0.1609    2.5429   -2.7791 C   0  0  0  0  0  0  0  0  0  0  0  0
   -0.7755    2.3375   -1.3927 C   0  0  2  0  0  0  0  0  0  0  0  0
   -0.5345    3.5719   -0.5050 C   0  0  0  0  0  0  0  0  0  0  0  0
    0.9182    3.7035   -0.0514 C   0  0  0  0  0  0  0  0  0  0  0  0
    1.4219    2.4819    0.5801 N   0  0  0  0  0  0  0  0  0  0  0  0
    1.1840    1.2332   -0.1589 C   0  0  0  0  0  0  0  0  0  0  0  0
   -0.2804    1.0842   -0.6288 C   0  0  2  0  0  0  0  0  0  0  0  0
   -0.5493   -0.1641   -1.3873 N   0  0  0  0  0  0  0  0  0  0  0  0
    0.5055   -0.7098   -2.2449 C   0  0  0  0  0  0  0  0  0  0  0  0
   -1.0798   -1.1648   -0.5412 C   0  0  0  0  0  0  0  0  0  0  0  0
   -2.4122   -1.1354   -0.0794 C   0  0  0  0  0  0  0  0  0  0  0  0
   -3.5490   -0.2938   -0.2557 C   0  0  0  0  0  0  0  0  0  0  0  0
   -4.5852   -0.8216    0.4864 C   0  0  0  0  0  0  0  0  0  0  0  0
   -4.1209   -1.9577    1.0988 N   0  0  0  0  0  0  0  0  0  0  0  0
   -2.8110   -2.1628    0.7612 C   0  0  0  0  0  0  0  0  0  0  0  0
   -2.0689   -3.1940    1.1863 N   0  0  0  0  0  0  0  0  0  0  0  0
   -0.8273   -3.1379    0.6803 C   0  0  0  0  0  0  0  0  0  0  0  0
   -0.2997   -2.2024   -0.1357 N   0  0  0  0  0  0  0  0  0  0  0  0
    2.4635    2.6303    1.5078 C   0  0  0  0  0  0  0  0  0  0  0  0
    2.8614    3.7441    1.8496 O   0  0  0  0  0  0  0  0  0  0  0  0
    3.0590    1.3572    2.0780 C   0  0  0  0  0  0  0  0  0  0  0  0
    4.0458    1.6214    3.1293 C   0  0  0  0  0  0  0  0  0  0  0  0
    4.8374    1.7548    3.9685 N   0  0  0  0  0  0  0  0  0  0  0  0
    0.9324    2.5307   -2.7576 H   0  0  0  0  0  0  0  0  0  0  0  0
   -0.5008    1.7685   -3.4735 H   0  0  0  0  0  0  0  0  0  0  0  0
   -0.4750    3.5038   -3.2016 H   0  0  0  0  0  0  0  0  0  0  0  0
   -1.8593    2.2452   -1.5419 H   0  0  0  0  0  0  0  0  0  0  0  0
   -1.1738    3.4929    0.3843 H   0  0  0  0  0  0  0  0  0  0  0  0
   -0.8416    4.4855   -1.0275 H   0  0  0  0  0  0  0  0  0  0  0  0
    0.9932    4.5458    0.6452 H   0  0  0  0  0  0  0  0  0  0  0  0
    1.5753    3.9294   -0.8993 H   0  0  0  0  0  0  0  0  0  0  0  0
    1.4442    0.3704    0.4599 H   0  0  0  0  0  0  0  0  0  0  0  0
    1.8831    1.2381   -1.0030 H   0  0  0  0  0  0  0  0  0  0  0  0
   -0.8773    1.0760    0.2970 H   0  0  0  0  0  0  0  0  0  0  0  0
    0.1200   -1.5424   -2.8460 H   0  0  0  0  0  0  0  0  0  0  0  0
    1.3742   -1.0628   -1.6767 H   0  0  0  0  0  0  0  0  0  0  0  0
    0.8640    0.0417   -2.9528 H   0  0  0  0  0  0  0  0  0  0  0  0
   -3.5984    0.5969   -0.8676 H   0  0  0  0  0  0  0  0  0  0  0  0
   -5.6072   -0.4943    0.6244 H   0  0  0  0  0  0  0  0  0  0  0  0
   -4.6475   -2.5720    1.7030 H   0  0  0  0  0  0  0  0  0  0  0  0
   -0.1610   -3.9463    0.9662 H   0  0  0  0  0  0  0  0  0  0  0  0
    2.2507    0.7478    2.4964 H   0  0  0  0  0  0  0  0  0  0  0  0
    3.5417    0.8024    1.2665 H   0  0  0  0  0  0  0  0  0  0  0  0
  1  2  1  0
  2  3  1  0
  3  4  1  0
  4  5  1  0
  5  6  1  0
  6  7  1  0
  7  8  1  0
  8  9  1  0
  8 10  1  0
 10 11  2  0
 11 12  1  0
 12 13  2  0
 13 14  1  0
 14 15  1  0
 15 16  2  0
 16 17  1  0
 17 18  2  0
  5 19  1  0
 19 20  2  0
 19 21  1  0
 21 22  1  0
 22 23  3  0
  7  2  1  0
 18 10  1  0
 15 11  1  0
  1 24  1  0
  1 25  1  0
  1 26  1  0
  2 27  1  6
  3 28  1  0
  3 29  1  0
  4 30  1  0
  4 31  1  0
  6 32  1  0
  6 33  1  0
  7 34  1  1
  9 35  1  0
  9 36  1  0
  9 37  1  0
 12 38  1  0
 13 39  1  0
 14 40  1  0
 17 41  1  0
 21 42  1  0
 21 43  1  0
M  END
>  <energy_abs>  (4) 
11.176106585398582

>  <SMILES>  (4) 
C[C@@H]1CCN(C[C@@H]1N(C)c2c3cc[nH]c3ncn2)C(=O)CC#N

>  <cluster_no>  (4) 
4

>  <fda_drugs_id>  (4) 
UJLAWZDWDVHWOW-YPMHNXCESA-N

>  <initial_conformation_id>  (4) 
286

>  <minimize_method>  (4) 
MMFF

$$$$

     RDKit          3D

 43 45  0  0  0  0  0  0  0  0999 V2000
    1.5716   -0.1046   -1.9560 C   0  0  0  0  0  0  0  0  0  0  0  0
    0.3696    0.6495   -1.3701 C   0  0  2  0  0  0  0  0  0  0  0  0
    0.4524    2.1493   -1.6900 C   0  0  0  0  0  0  0  0  0  0  0  0
    1.5835    2.8498   -0.9470 C   0  0  0  0  0  0  0  0  0  0  0  0
    1.5614    2.5922    0.4932 N   0  0  0  0  0  0  0  0  0  0  0  0
    1.3660    1.1916    0.9015 C   0  0  0  0  0  0  0  0  0  0  0  0
    0.2013    0.4748    0.1660 C   0  0  2  0  0  0  0  0  0  0  0  0
    0.0986   -0.9550    0.5562 N   0  0  0  0  0  0  0  0  0  0  0  0
    0.0836   -1.2718    1.9847 C   0  0  0  0  0  0  0  0  0  0  0  0
   -0.9672   -1.6464   -0.0609 C   0  0  0  0  0  0  0  0  0  0  0  0
   -2.3409   -1.3303    0.0474 C   0  0  0  0  0  0  0  0  0  0  0  0
   -3.1426   -0.3590    0.7186 C   0  0  0  0  0  0  0  0  0  0  0  0
   -4.4629   -0.6025    0.4022 C   0  0  0  0  0  0  0  0  0  0  0  0
   -4.4956   -1.6896   -0.4318 N   0  0  0  0  0  0  0  0  0  0  0  0
   -3.2240   -2.1447   -0.6474 C   0  0  0  0  0  0  0  0  0  0  0  0
   -2.9231   -3.2057   -1.4074 N   0  0  0  0  0  0  0  0  0  0  0  0
   -1.6000   -3.4283   -1.4271 C   0  0  0  0  0  0  0  0  0  0  0  0
   -0.6318   -2.7296   -0.8062 N   0  0  0  0  0  0  0  0  0  0  0  0
    2.2319    3.5297    1.2973 C   0  0  0  0  0  0  0  0  0  0  0  0
    2.6721    4.5786    0.8263 O   0  0  0  0  0  0  0  0  0  0  0  0
    2.3690    3.1971    2.7704 C   0  0  0  0  0  0  0  0  0  0  0  0
    2.9930    4.2801    3.5363 C   0  0  0  0  0  0  0  0  0  0  0  0
    3.4764    5.0931    4.2098 N   0  0  0  0  0  0  0  0  0  0  0  0
    2.5203    0.2006   -1.5063 H   0  0  0  0  0  0  0  0  0  0  0  0
    1.6438    0.0754   -3.0343 H   0  0  0  0  0  0  0  0  0  0  0  0
    1.4731   -1.1846   -1.8154 H   0  0  0  0  0  0  0  0  0  0  0  0
   -0.5251    0.2668   -1.8776 H   0  0  0  0  0  0  0  0  0  0  0  0
    0.5714    2.3028   -2.7691 H   0  0  0  0  0  0  0  0  0  0  0  0
   -0.4994    2.6202   -1.4107 H   0  0  0  0  0  0  0  0  0  0  0  0
    1.5115    3.9273   -1.1341 H   0  0  0  0  0  0  0  0  0  0  0  0
    2.5612    2.5273   -1.3235 H   0  0  0  0  0  0  0  0  0  0  0  0
    1.1665    1.1673    1.9754 H   0  0  0  0  0  0  0  0  0  0  0  0
    2.3174    0.6680    0.7490 H   0  0  0  0  0  0  0  0  0  0  0  0
   -0.7149    1.0005    0.4644 H   0  0  0  0  0  0  0  0  0  0  0  0
   -0.6764   -0.6940    2.5226 H   0  0  0  0  0  0  0  0  0  0  0  0
   -0.0926   -2.3400    2.1651 H   0  0  0  0  0  0  0  0  0  0  0  0
    1.0596   -1.0497    2.4287 H   0  0  0  0  0  0  0  0  0  0  0  0
   -2.7956    0.4329    1.3681 H   0  0  0  0  0  0  0  0  0  0  0  0
   -5.3759   -0.1025    0.6983 H   0  0  0  0  0  0  0  0  0  0  0  0
   -5.3185   -2.1159   -0.8332 H   0  0  0  0  0  0  0  0  0  0  0  0
   -1.2665   -4.2771   -2.0160 H   0  0  0  0  0  0  0  0  0  0  0  0
    1.3718    3.0048    3.1805 H   0  0  0  0  0  0  0  0  0  0  0  0
    2.9773    2.2920    2.8710 H   0  0  0  0  0  0  0  0  0  0  0  0
  1  2  1  0
  2  3  1  0
  3  4  1  0
  4  5  1  0
  5  6  1  0
  6  7  1  0
  7  8  1  0
  8  9  1  0
  8 10  1  0
 10 11  2  0
 11 12  1  0
 12 13  2  0
 13 14  1  0
 14 15  1  0
 15 16  2  0
 16 17  1  0
 17 18  2  0
  5 19  1  0
 19 20  2  0
 19 21  1  0
 21 22  1  0
 22 23  3  0
  7  2  1  0
 18 10  1  0
 15 11  1  0
  1 24  1  0
  1 25  1  0
  1 26  1  0
  2 27  1  6
  3 28  1  0
  3 29  1  0
  4 30  1  0
  4 31  1  0
  6 32  1  0
  6 33  1  0
  7 34  1  1
  9 35  1  0
  9 36  1  0
  9 37  1  0
 12 38  1  0
 13 39  1  0
 14 40  1  0
 17 41  1  0
 21 42  1  0
 21 43  1  0
M  END
>  <energy_abs>  (5) 
17.194473029678615

>  <SMILES>  (5) 
C[C@@H]1CCN(C[C@@H]1N(C)c2c3cc[nH]c3ncn2)C(=O)CC#N

>  <cluster_no>  (5) 
5

>  <fda_drugs_id>  (5) 
UJLAWZDWDVHWOW-YPMHNXCESA-N

>  <initial_conformation_id>  (5) 
264

>  <minimize_method>  (5) 
MMFF

$$$$

     RDKit          3D

 43 45  0  0  0  0  0  0  0  0999 V2000
   -1.3813    3.1555   -0.9395 C   0  0  0  0  0  0  0  0  0  0  0  0
   -0.6878    3.1300    0.4242 C   0  0  2  0  0  0  0  0  0  0  0  0
    0.6661    3.8694    0.3136 C   0  0  0  0  0  0  0  0  0  0  0  0
    1.6615    3.4540    1.3950 C   0  0  0  0  0  0  0  0  0  0  0  0
    1.9525    2.0194    1.3463 N   0  0  0  0  0  0  0  0  0  0  0  0
    0.8968    1.1463    0.7986 C   0  0  0  0  0  0  0  0  0  0  0  0
   -0.5074    1.7285    1.0659 C   0  0  2  0  0  0  0  0  0  0  0  0
   -1.6475    0.8064    0.8796 N   0  0  0  0  0  0  0  0  0  0  0  0
   -2.8323    1.0699    1.6850 C   0  0  0  0  0  0  0  0  0  0  0  0
   -1.7332   -0.0789   -0.1886 C   0  0  0  0  0  0  0  0  0  0  0  0
   -2.7298   -1.0787   -0.3710 C   0  0  0  0  0  0  0  0  0  0  0  0
   -3.8695   -1.5796    0.3357 C   0  0  0  0  0  0  0  0  0  0  0  0
   -4.4328   -2.5989   -0.4033 C   0  0  0  0  0  0  0  0  0  0  0  0
   -3.6786   -2.7495   -1.5337 N   0  0  0  0  0  0  0  0  0  0  0  0
   -2.6471   -1.8520   -1.5242 C   0  0  0  0  0  0  0  0  0  0  0  0
   -1.7303   -1.7744   -2.4959 N   0  0  0  0  0  0  0  0  0  0  0  0
   -0.8297   -0.8245   -2.2304 C   0  0  0  0  0  0  0  0  0  0  0  0
   -0.7784   -0.0102   -1.1592 N   0  0  0  0  0  0  0  0  0  0  0  0
    3.1817    1.5720    1.8267 C   0  0  0  0  0  0  0  0  0  0  0  0
    3.9702    2.3438    2.3731 O   0  0  0  0  0  0  0  0  0  0  0  0
    3.4858    0.0963    1.6576 C   0  0  0  0  0  0  0  0  0  0  0  0
    4.9023   -0.2078    1.8792 C   0  0  0  0  0  0  0  0  0  0  0  0
    6.0109   -0.5186    2.0312 N   0  0  0  0  0  0  0  0  0  0  0  0
   -1.4827    4.1872   -1.2949 H   0  0  0  0  0  0  0  0  0  0  0  0
   -0.8100    2.6048   -1.6927 H   0  0  0  0  0  0  0  0  0  0  0  0
   -2.3900    2.7354   -0.8872 H   0  0  0  0  0  0  0  0  0  0  0  0
   -1.3257    3.7111    1.1053 H   0  0  0  0  0  0  0  0  0  0  0  0
    0.4947    4.9513    0.3642 H   0  0  0  0  0  0  0  0  0  0  0  0
    1.1198    3.6709   -0.6666 H   0  0  0  0  0  0  0  0  0  0  0  0
    1.2623    3.6746    2.3920 H   0  0  0  0  0  0  0  0  0  0  0  0
    2.5902    4.0238    1.2798 H   0  0  0  0  0  0  0  0  0  0  0  0
    0.9761    0.1471    1.2365 H   0  0  0  0  0  0  0  0  0  0  0  0
    1.1182    1.0698   -0.2699 H   0  0  0  0  0  0  0  0  0  0  0  0
   -0.4902    1.9192    2.1515 H   0  0  0  0  0  0  0  0  0  0  0  0
   -3.0026    0.2529    2.3926 H   0  0  0  0  0  0  0  0  0  0  0  0
   -2.7188    1.9796    2.2860 H   0  0  0  0  0  0  0  0  0  0  0  0
   -3.7206    1.2230    1.0625 H   0  0  0  0  0  0  0  0  0  0  0  0
   -4.2497   -1.2454    1.2899 H   0  0  0  0  0  0  0  0  0  0  0  0
   -5.2949   -3.2266   -0.2194 H   0  0  0  0  0  0  0  0  0  0  0  0
   -3.8300   -3.4195   -2.2739 H   0  0  0  0  0  0  0  0  0  0  0  0
   -0.0421   -0.6920   -2.9656 H   0  0  0  0  0  0  0  0  0  0  0  0
    2.8744   -0.4643    2.3726 H   0  0  0  0  0  0  0  0  0  0  0  0
    3.2168   -0.2153    0.6428 H   0  0  0  0  0  0  0  0  0  0  0  0
  1  2  1  0
  2  3  1  0
  3  4  1  0
  4  5  1  0
  5  6  1  0
  6  7  1  0
  7  8  1  0
  8  9  1  0
  8 10  1  0
 10 11  2  0
 11 12  1  0
 12 13  2  0
 13 14  1  0
 14 15  1  0
 15 16  2  0
 16 17  1  0
 17 18  2  0
  5 19  1  0
 19 20  2  0
 19 21  1  0
 21 22  1  0
 22 23  3  0
  7  2  1  0
 18 10  1  0
 15 11  1  0
  1 24  1  0
  1 25  1  0
  1 26  1  0
  2 27  1  1
  3 28  1  0
  3 29  1  0
  4 30  1  0
  4 31  1  0
  6 32  1  0
  6 33  1  0
  7 34  1  1
  9 35  1  0
  9 36  1  0
  9 37  1  0
 12 38  1  0
 13 39  1  0
 14 40  1  0
 17 41  1  0
 21 42  1  0
 21 43  1  0
M  END
>  <energy_abs>  (6) 
16.056349125491423

>  <SMILES>  (6) 
C[C@@H]1CCN(C[C@@H]1N(C)c2c3cc[nH]c3ncn2)C(=O)CC#N

>  <cluster_no>  (6) 
6

>  <fda_drugs_id>  (6) 
UJLAWZDWDVHWOW-YPMHNXCESA-N

>  <initial_conformation_id>  (6) 
232

>  <minimize_method>  (6) 
MMFF

$$$$

     RDKit          3D

 43 45  0  0  0  0  0  0  0  0999 V2000
   -1.7385    2.2761    2.0940 C   0  0  0  0  0  0  0  0  0  0  0  0
   -0.6199    1.4115    2.6786 C   0  0  2  0  0  0  0  0  0  0  0  0
    0.5249    2.2946    3.2100 C   0  0  0  0  0  0  0  0  0  0  0  0
    1.3740    2.9137    2.0997 C   0  0  0  0  0  0  0  0  0  0  0  0
    1.8640    1.9108    1.1506 N   0  0  0  0  0  0  0  0  0  0  0  0
    0.8309    1.0145    0.5943 C   0  0  0  0  0  0  0  0  0  0  0  0
   -0.0223    0.3662    1.7053 C   0  0  2  0  0  0  0  0  0  0  0  0
   -1.0014   -0.6582    1.2831 N   0  0  0  0  0  0  0  0  0  0  0  0
   -1.2063   -1.7771    2.1896 C   0  0  0  0  0  0  0  0  0  0  0  0
   -1.7364   -0.5751    0.1096 C   0  0  0  0  0  0  0  0  0  0  0  0
   -2.4361   -1.6438   -0.5183 C   0  0  0  0  0  0  0  0  0  0  0  0
   -2.6324   -3.0469   -0.3116 C   0  0  0  0  0  0  0  0  0  0  0  0
   -3.4422   -3.5312   -1.3177 C   0  0  0  0  0  0  0  0  0  0  0  0
   -3.7427   -2.4817   -2.1409 N   0  0  0  0  0  0  0  0  0  0  0  0
   -3.1388   -1.3446   -1.6808 C   0  0  0  0  0  0  0  0  0  0  0  0
   -3.2379   -0.1590   -2.2936 N   0  0  0  0  0  0  0  0  0  0  0  0
   -2.5363    0.7747   -1.6441 C   0  0  0  0  0  0  0  0  0  0  0  0
   -1.8158    0.6328   -0.5160 N   0  0  0  0  0  0  0  0  0  0  0  0
    3.0487    2.0524    0.4156 C   0  0  0  0  0  0  0  0  0  0  0  0
    3.2836    1.3534   -0.5698 O   0  0  0  0  0  0  0  0  0  0  0  0
    4.0358    3.0929    0.9066 C   0  0  0  0  0  0  0  0  0  0  0  0
    5.2850    3.0917    0.1397 C   0  0  0  0  0  0  0  0  0  0  0  0
    6.3022    3.1507   -0.4176 N   0  0  0  0  0  0  0  0  0  0  0  0
   -2.0597    3.0302    2.8213 H   0  0  0  0  0  0  0  0  0  0  0  0
   -1.4278    2.8040    1.1882 H   0  0  0  0  0  0  0  0  0  0  0  0
   -2.6188    1.6706    1.8584 H   0  0  0  0  0  0  0  0  0  0  0  0
   -1.0510    0.8824    3.5390 H   0  0  0  0  0  0  0  0  0  0  0  0
    0.1290    3.0868    3.8564 H   0  0  0  0  0  0  0  0  0  0  0  0
    1.1759    1.6753    3.8414 H   0  0  0  0  0  0  0  0  0  0  0  0
    0.7981    3.6502    1.5277 H   0  0  0  0  0  0  0  0  0  0  0  0
    2.2058    3.4509    2.5615 H   0  0  0  0  0  0  0  0  0  0  0  0
    1.2979    0.2264   -0.0073 H   0  0  0  0  0  0  0  0  0  0  0  0
    0.2493    1.6393   -0.0879 H   0  0  0  0  0  0  0  0  0  0  0  0
    0.7222   -0.1836    2.3037 H   0  0  0  0  0  0  0  0  0  0  0  0
   -2.2699   -2.0036    2.3211 H   0  0  0  0  0  0  0  0  0  0  0  0
   -0.8197   -1.5571    3.1915 H   0  0  0  0  0  0  0  0  0  0  0  0
   -0.6729   -2.6635    1.8327 H   0  0  0  0  0  0  0  0  0  0  0  0
   -2.2230   -3.6562    0.4809 H   0  0  0  0  0  0  0  0  0  0  0  0
   -3.8185   -4.5252   -1.5198 H   0  0  0  0  0  0  0  0  0  0  0  0
   -4.3090   -2.5142   -2.9761 H   0  0  0  0  0  0  0  0  0  0  0  0
   -2.5482    1.7702   -2.0764 H   0  0  0  0  0  0  0  0  0  0  0  0
    3.5703    4.0812    0.8288 H   0  0  0  0  0  0  0  0  0  0  0  0
    4.2671    2.8886    1.9576 H   0  0  0  0  0  0  0  0  0  0  0  0
  1  2  1  0
  2  3  1  0
  3  4  1  0
  4  5  1  0
  5  6  1  0
  6  7  1  0
  7  8  1  0
  8  9  1  0
  8 10  1  0
 10 11  2  0
 11 12  1  0
 12 13  2  0
 13 14  1  0
 14 15  1  0
 15 16  2  0
 16 17  1  0
 17 18  2  0
  5 19  1  0
 19 20  2  0
 19 21  1  0
 21 22  1  0
 22 23  3  0
  7  2  1  0
 18 10  1  0
 15 11  1  0
  1 24  1  0
  1 25  1  0
  1 26  1  0
  2 27  1  1
  3 28  1  0
  3 29  1  0
  4 30  1  0
  4 31  1  0
  6 32  1  0
  6 33  1  0
  7 34  1  1
  9 35  1  0
  9 36  1  0
  9 37  1  0
 12 38  1  0
 13 39  1  0
 14 40  1  0
 17 41  1  0
 21 42  1  0
 21 43  1  0
M  END
>  <energy_abs>  (7) 
14.626975273599733

>  <SMILES>  (7) 
C[C@@H]1CCN(C[C@@H]1N(C)c2c3cc[nH]c3ncn2)C(=O)CC#N

>  <cluster_no>  (7) 
7

>  <fda_drugs_id>  (7) 
UJLAWZDWDVHWOW-YPMHNXCESA-N

>  <initial_conformation_id>  (7) 
217

>  <minimize_method>  (7) 
MMFF

$$$$

     RDKit          3D

 43 45  0  0  0  0  0  0  0  0999 V2000
   -1.1111    2.3378   -2.4754 C   0  0  0  0  0  0  0  0  0  0  0  0
   -0.0929    2.3861   -1.3353 C   0  0  2  0  0  0  0  0  0  0  0  0
    1.3319    2.5895   -1.8608 C   0  0  0  0  0  0  0  0  0  0  0  0
    2.2843    2.9004   -0.7072 C   0  0  0  0  0  0  0  0  0  0  0  0
    2.0597    2.0742    0.4781 N   0  0  0  0  0  0  0  0  0  0  0  0
    1.2211    0.8808    0.3039 C   0  0  0  0  0  0  0  0  0  0  0  0
   -0.1653    1.1957   -0.3253 C   0  0  2  0  0  0  0  0  0  0  0  0
   -0.8324    0.0087   -0.9227 N   0  0  0  0  0  0  0  0  0  0  0  0
   -0.0531   -0.8690   -1.7953 C   0  0  0  0  0  0  0  0  0  0  0  0
   -1.5874   -0.7487   -0.0040 C   0  0  0  0  0  0  0  0  0  0  0  0
   -2.6821   -1.5528   -0.3902 C   0  0  0  0  0  0  0  0  0  0  0  0
   -3.3761   -1.8473   -1.6012 C   0  0  0  0  0  0  0  0  0  0  0  0
   -4.3944   -2.7291   -1.3042 C   0  0  0  0  0  0  0  0  0  0  0  0
   -4.3521   -2.9713    0.0448 N   0  0  0  0  0  0  0  0  0  0  0  0
   -3.3313   -2.2585    0.6116 C   0  0  0  0  0  0  0  0  0  0  0  0
   -3.0404   -2.2624    1.9193 N   0  0  0  0  0  0  0  0  0  0  0  0
   -2.0040   -1.4525    2.1852 C   0  0  0  0  0  0  0  0  0  0  0  0
   -1.2845   -0.7110    1.3198 N   0  0  0  0  0  0  0  0  0  0  0  0
    2.7943    2.2123    1.6609 C   0  0  0  0  0  0  0  0  0  0  0  0
    2.7122    1.3922    2.5741 O   0  0  0  0  0  0  0  0  0  0  0  0
    3.6840    3.4374    1.7611 C   0  0  0  0  0  0  0  0  0  0  0  0
    4.4208    3.4957    3.0269 C   0  0  0  0  0  0  0  0  0  0  0  0
    5.0409    3.6103    4.0021 N   0  0  0  0  0  0  0  0  0  0  0  0
   -0.8950    1.5340   -3.1855 H   0  0  0  0  0  0  0  0  0  0  0  0
   -1.0987    3.2788   -3.0365 H   0  0  0  0  0  0  0  0  0  0  0  0
   -2.1262    2.1998   -2.0886 H   0  0  0  0  0  0  0  0  0  0  0  0
   -0.3370    3.2920   -0.7592 H   0  0  0  0  0  0  0  0  0  0  0  0
    1.6724    1.6928   -2.3906 H   0  0  0  0  0  0  0  0  0  0  0  0
    1.3684    3.4116   -2.5854 H   0  0  0  0  0  0  0  0  0  0  0  0
    2.1713    3.9493   -0.4118 H   0  0  0  0  0  0  0  0  0  0  0  0
    3.3205    2.7603   -1.0347 H   0  0  0  0  0  0  0  0  0  0  0  0
    1.0827    0.3645    1.2586 H   0  0  0  0  0  0  0  0  0  0  0  0
    1.8074    0.2020   -0.3252 H   0  0  0  0  0  0  0  0  0  0  0  0
   -0.8058    1.5853    0.4809 H   0  0  0  0  0  0  0  0  0  0  0  0
   -0.6992   -1.4664   -2.4463 H   0  0  0  0  0  0  0  0  0  0  0  0
    0.5913   -0.2881   -2.4608 H   0  0  0  0  0  0  0  0  0  0  0  0
    0.5839   -1.5532   -1.2220 H   0  0  0  0  0  0  0  0  0  0  0  0
   -3.1541   -1.4450   -2.5808 H   0  0  0  0  0  0  0  0  0  0  0  0
   -5.1454   -3.1941   -1.9290 H   0  0  0  0  0  0  0  0  0  0  0  0
   -4.9764   -3.5675    0.5684 H   0  0  0  0  0  0  0  0  0  0  0  0
   -1.7047   -1.3853    3.2269 H   0  0  0  0  0  0  0  0  0  0  0  0
    3.0580    4.3313    1.6702 H   0  0  0  0  0  0  0  0  0  0  0  0
    4.4017    3.4250    0.9345 H   0  0  0  0  0  0  0  0  0  0  0  0
  1  2  1  0
  2  3  1  0
  3  4  1  0
  4  5  1  0
  5  6  1  0
  6  7  1  0
  7  8  1  0
  8  9  1  0
  8 10  1  0
 10 11  2  0
 11 12  1  0
 12 13  2  0
 13 14  1  0
 14 15  1  0
 15 16  2  0
 16 17  1  0
 17 18  2  0
  5 19  1  0
 19 20  2  0
 19 21  1  0
 21 22  1  0
 22 23  3  0
  7  2  1  0
 18 10  1  0
 15 11  1  0
  1 24  1  0
  1 25  1  0
  1 26  1  0
  2 27  1  1
  3 28  1  0
  3 29  1  0
  4 30  1  0
  4 31  1  0
  6 32  1  0
  6 33  1  0
  7 34  1  1
  9 35  1  0
  9 36  1  0
  9 37  1  0
 12 38  1  0
 13 39  1  0
 14 40  1  0
 17 41  1  0
 21 42  1  0
 21 43  1  0
M  END
>  <energy_abs>  (8) 
15.801009652299747

>  <SMILES>  (8) 
C[C@@H]1CCN(C[C@@H]1N(C)c2c3cc[nH]c3ncn2)C(=O)CC#N

>  <cluster_no>  (8) 
8

>  <fda_drugs_id>  (8) 
UJLAWZDWDVHWOW-YPMHNXCESA-N

>  <initial_conformation_id>  (8) 
282

>  <minimize_method>  (8) 
MMFF

$$$$

     RDKit          3D

 43 45  0  0  0  0  0  0  0  0999 V2000
    0.3489    0.8989   -3.3034 C   0  0  0  0  0  0  0  0  0  0  0  0
    0.7878    1.3399   -1.9071 C   0  0  2  0  0  0  0  0  0  0  0  0
    1.8608    0.4008   -1.3400 C   0  0  0  0  0  0  0  0  0  0  0  0
    2.5107    1.0279   -0.1046 C   0  0  0  0  0  0  0  0  0  0  0  0
    1.5544    1.7391    0.7438 N   0  0  0  0  0  0  0  0  0  0  0  0
    0.1483    1.3492    0.5868 C   0  0  0  0  0  0  0  0  0  0  0  0
   -0.3652    1.5544   -0.8708 C   0  0  2  0  0  0  0  0  0  0  0  0
   -1.5794    0.7705   -1.2560 N   0  0  0  0  0  0  0  0  0  0  0  0
   -2.6948    1.6147   -1.7084 C   0  0  0  0  0  0  0  0  0  0  0  0
   -2.0573   -0.1329   -0.2931 C   0  0  0  0  0  0  0  0  0  0  0  0
   -1.7896   -1.5129   -0.3623 C   0  0  0  0  0  0  0  0  0  0  0  0
   -1.1010   -2.3914   -1.2467 C   0  0  0  0  0  0  0  0  0  0  0  0
   -1.2025   -3.6697   -0.7379 C   0  0  0  0  0  0  0  0  0  0  0  0
   -1.9337   -3.5985    0.4204 N   0  0  0  0  0  0  0  0  0  0  0  0
   -2.2965   -2.3013    0.6590 C   0  0  0  0  0  0  0  0  0  0  0  0
   -3.0196   -1.8961    1.7118 N   0  0  0  0  0  0  0  0  0  0  0  0
   -3.2248   -0.5696    1.6773 C   0  0  0  0  0  0  0  0  0  0  0  0
   -2.7959    0.3152    0.7552 N   0  0  0  0  0  0  0  0  0  0  0  0
    1.9164    2.5591    1.8144 C   0  0  0  0  0  0  0  0  0  0  0  0
    1.0734    3.0650    2.5538 O   0  0  0  0  0  0  0  0  0  0  0  0
    3.4005    2.8154    1.9957 C   0  0  0  0  0  0  0  0  0  0  0  0
    3.6946    3.5739    3.2148 C   0  0  0  0  0  0  0  0  0  0  0  0
    4.0065    4.1668    4.1634 N   0  0  0  0  0  0  0  0  0  0  0  0
    1.2093    0.8657   -3.9810 H   0  0  0  0  0  0  0  0  0  0  0  0
   -0.3713    1.6042   -3.7293 H   0  0  0  0  0  0  0  0  0  0  0  0
   -0.0998   -0.0980   -3.2975 H   0  0  0  0  0  0  0  0  0  0  0  0
    1.2714    2.3194   -2.0425 H   0  0  0  0  0  0  0  0  0  0  0  0
    2.6377    0.1887   -2.0838 H   0  0  0  0  0  0  0  0  0  0  0  0
    1.4087   -0.5626   -1.0754 H   0  0  0  0  0  0  0  0  0  0  0  0
    3.2840    1.7367   -0.4192 H   0  0  0  0  0  0  0  0  0  0  0  0
    2.9969    0.2534    0.4989 H   0  0  0  0  0  0  0  0  0  0  0  0
    0.1147    0.2997    0.8992 H   0  0  0  0  0  0  0  0  0  0  0  0
   -0.4965    1.9041    1.2767 H   0  0  0  0  0  0  0  0  0  0  0  0
   -0.6194    2.6225   -0.9451 H   0  0  0  0  0  0  0  0  0  0  0  0
   -3.0375    2.3032   -0.9264 H   0  0  0  0  0  0  0  0  0  0  0  0
   -2.3807    2.2186   -2.5666 H   0  0  0  0  0  0  0  0  0  0  0  0
   -3.5418    1.0045   -2.0450 H   0  0  0  0  0  0  0  0  0  0  0  0
   -0.5928   -2.1124   -2.1594 H   0  0  0  0  0  0  0  0  0  0  0  0
   -0.8269   -4.6175   -1.1003 H   0  0  0  0  0  0  0  0  0  0  0  0
   -2.1850   -4.3703    1.0211 H   0  0  0  0  0  0  0  0  0  0  0  0
   -3.8069   -0.1554    2.4951 H   0  0  0  0  0  0  0  0  0  0  0  0
    3.9271    1.8567    2.0420 H   0  0  0  0  0  0  0  0  0  0  0  0
    3.7634    3.3742    1.1265 H   0  0  0  0  0  0  0  0  0  0  0  0
  1  2  1  0
  2  3  1  0
  3  4  1  0
  4  5  1  0
  5  6  1  0
  6  7  1  0
  7  8  1  0
  8  9  1  0
  8 10  1  0
 10 11  2  0
 11 12  1  0
 12 13  2  0
 13 14  1  0
 14 15  1  0
 15 16  2  0
 16 17  1  0
 17 18  2  0
  5 19  1  0
 19 20  2  0
 19 21  1  0
 21 22  1  0
 22 23  3  0
  7  2  1  0
 18 10  1  0
 15 11  1  0
  1 24  1  0
  1 25  1  0
  1 26  1  0
  2 27  1  6
  3 28  1  0
  3 29  1  0
  4 30  1  0
  4 31  1  0
  6 32  1  0
  6 33  1  0
  7 34  1  1
  9 35  1  0
  9 36  1  0
  9 37  1  0
 12 38  1  0
 13 39  1  0
 14 40  1  0
 17 41  1  0
 21 42  1  0
 21 43  1  0
M  END
>  <energy_abs>  (9) 
19.17936870408087

>  <SMILES>  (9) 
C[C@@H]1CCN(C[C@@H]1N(C)c2c3cc[nH]c3ncn2)C(=O)CC#N

>  <cluster_no>  (9) 
9

>  <fda_drugs_id>  (9) 
UJLAWZDWDVHWOW-YPMHNXCESA-N

>  <initial_conformation_id>  (9) 
280

>  <minimize_method>  (9) 
MMFF

$$$$

     RDKit          3D

 43 45  0  0  0  0  0  0  0  0999 V2000
    1.4338   -0.7073   -2.2821 C   0  0  0  0  0  0  0  0  0  0  0  0
    1.4390    0.7222   -1.7354 C   0  0  2  0  0  0  0  0  0  0  0  0
    2.8105    1.0057   -1.0861 C   0  0  0  0  0  0  0  0  0  0  0  0
    2.7973    2.2513   -0.2042 C   0  0  0  0  0  0  0  0  0  0  0  0
    1.8039    2.1710    0.8683 N   0  0  0  0  0  0  0  0  0  0  0  0
    0.7225    1.1803    0.6975 C   0  0  0  0  0  0  0  0  0  0  0  0
    0.2734    1.1019   -0.7787 C   0  0  2  0  0  0  0  0  0  0  0  0
   -0.9926    0.3912   -1.0415 N   0  0  0  0  0  0  0  0  0  0  0  0
   -1.8301    0.9061   -2.1123 C   0  0  0  0  0  0  0  0  0  0  0  0
   -1.3331   -0.7896   -0.3971 C   0  0  0  0  0  0  0  0  0  0  0  0
   -2.6217   -1.3909   -0.3790 C   0  0  0  0  0  0  0  0  0  0  0  0
   -3.9325   -1.0981   -0.8737 C   0  0  0  0  0  0  0  0  0  0  0  0
   -4.7820   -2.1173   -0.4969 C   0  0  0  0  0  0  0  0  0  0  0  0
   -4.0453   -3.0197    0.2196 N   0  0  0  0  0  0  0  0  0  0  0  0
   -2.7492   -2.5933    0.3078 C   0  0  0  0  0  0  0  0  0  0  0  0
   -1.7959   -3.2628    0.9669 N   0  0  0  0  0  0  0  0  0  0  0  0
   -0.6290   -2.6130    0.9107 C   0  0  0  0  0  0  0  0  0  0  0  0
   -0.3575   -1.4519    0.2861 N   0  0  0  0  0  0  0  0  0  0  0  0
    1.8303    2.9450    2.0288 C   0  0  0  0  0  0  0  0  0  0  0  0
    1.0087    2.7850    2.9307 O   0  0  0  0  0  0  0  0  0  0  0  0
    2.9352    3.9787    2.1290 C   0  0  0  0  0  0  0  0  0  0  0  0
    2.6928    4.9537    3.1960 C   0  0  0  0  0  0  0  0  0  0  0  0
    2.5636    5.7702    4.0116 N   0  0  0  0  0  0  0  0  0  0  0  0
    2.2597   -0.8447   -2.9896 H   0  0  0  0  0  0  0  0  0  0  0  0
    0.5101   -0.9301   -2.8241 H   0  0  0  0  0  0  0  0  0  0  0  0
    1.5634   -1.4463   -1.4866 H   0  0  0  0  0  0  0  0  0  0  0  0
    1.3488    1.3809   -2.6113 H   0  0  0  0  0  0  0  0  0  0  0  0
    3.5705    1.1176   -1.8688 H   0  0  0  0  0  0  0  0  0  0  0  0
    3.1162    0.1465   -0.4742 H   0  0  0  0  0  0  0  0  0  0  0  0
    3.7903    2.4008    0.2310 H   0  0  0  0  0  0  0  0  0  0  0  0
    2.5584    3.1378   -0.8030 H   0  0  0  0  0  0  0  0  0  0  0  0
   -0.1284    1.4369    1.3379 H   0  0  0  0  0  0  0  0  0  0  0  0
    1.1362    0.2341    1.0589 H   0  0  0  0  0  0  0  0  0  0  0  0
    0.0563    2.1559   -1.0182 H   0  0  0  0  0  0  0  0  0  0  0  0
   -2.1649    0.1097   -2.7857 H   0  0  0  0  0  0  0  0  0  0  0  0
   -1.2837    1.6212   -2.7385 H   0  0  0  0  0  0  0  0  0  0  0  0
   -2.6936    1.4386   -1.7019 H   0  0  0  0  0  0  0  0  0  0  0  0
   -4.2400   -0.2310   -1.4399 H   0  0  0  0  0  0  0  0  0  0  0  0
   -5.8392   -2.2704   -0.6683 H   0  0  0  0  0  0  0  0  0  0  0  0
   -4.3830   -3.8714    0.6437 H   0  0  0  0  0  0  0  0  0  0  0  0
    0.2033   -3.0769    1.4304 H   0  0  0  0  0  0  0  0  0  0  0  0
    3.0175    4.5175    1.1794 H   0  0  0  0  0  0  0  0  0  0  0  0
    3.8782    3.4545    2.3171 H   0  0  0  0  0  0  0  0  0  0  0  0
  1  2  1  0
  2  3  1  0
  3  4  1  0
  4  5  1  0
  5  6  1  0
  6  7  1  0
  7  8  1  0
  8  9  1  0
  8 10  1  0
 10 11  2  0
 11 12  1  0
 12 13  2  0
 13 14  1  0
 14 15  1  0
 15 16  2  0
 16 17  1  0
 17 18  2  0
  5 19  1  0
 19 20  2  0
 19 21  1  0
 21 22  1  0
 22 23  3  0
  7  2  1  0
 18 10  1  0
 15 11  1  0
  1 24  1  0
  1 25  1  0
  1 26  1  0
  2 27  1  6
  3 28  1  0
  3 29  1  0
  4 30  1  0
  4 31  1  0
  6 32  1  0
  6 33  1  0
  7 34  1  6
  9 35  1  0
  9 36  1  0
  9 37  1  0
 12 38  1  0
 13 39  1  0
 14 40  1  0
 17 41  1  0
 21 42  1  0
 21 43  1  0
M  END
>  <energy_abs>  (10) 
18.444915789476042

>  <SMILES>  (10) 
C[C@@H]1CCN(C[C@@H]1N(C)c2c3cc[nH]c3ncn2)C(=O)CC#N

>  <cluster_no>  (10) 
10

>  <fda_drugs_id>  (10) 
UJLAWZDWDVHWOW-YPMHNXCESA-N

>  <initial_conformation_id>  (10) 
270

>  <minimize_method>  (10) 
MMFF

$$$$

     RDKit          3D

 43 45  0  0  0  0  0  0  0  0999 V2000
    1.5610    0.9496   -2.8049 C   0  0  0  0  0  0  0  0  0  0  0  0
    0.3650    1.3068   -1.9183 C   0  0  2  0  0  0  0  0  0  0  0  0
    0.3878    2.7997   -1.5491 C   0  0  0  0  0  0  0  0  0  0  0  0
    1.4896    3.1486   -0.5514 C   0  0  0  0  0  0  0  0  0  0  0  0
    1.4631    2.2969    0.6398 N   0  0  0  0  0  0  0  0  0  0  0  0
    1.3570    0.8486    0.3969 C   0  0  0  0  0  0  0  0  0  0  0  0
    0.2449    0.4813   -0.6116 C   0  0  2  0  0  0  0  0  0  0  0  0
    0.1309   -0.9712   -0.9061 N   0  0  0  0  0  0  0  0  0  0  0  0
    1.3438   -1.7919   -0.8413 C   0  0  0  0  0  0  0  0  0  0  0  0
   -0.9242   -1.5680   -0.1769 C   0  0  0  0  0  0  0  0  0  0  0  0
   -2.2855   -1.3208   -0.4608 C   0  0  0  0  0  0  0  0  0  0  0  0
   -3.0242   -0.5623   -1.4162 C   0  0  0  0  0  0  0  0  0  0  0  0
   -4.3669   -0.7424   -1.1564 C   0  0  0  0  0  0  0  0  0  0  0  0
   -4.4709   -1.5915   -0.0848 N   0  0  0  0  0  0  0  0  0  0  0  0
   -3.2227   -1.9564    0.3395 C   0  0  0  0  0  0  0  0  0  0  0  0
   -2.9848   -2.7923    1.3588 N   0  0  0  0  0  0  0  0  0  0  0  0
   -1.6672   -2.9776    1.5331 C   0  0  0  0  0  0  0  0  0  0  0  0
   -0.6500   -2.4324    0.8370 N   0  0  0  0  0  0  0  0  0  0  0  0
    2.0428    2.6834    1.8590 C   0  0  0  0  0  0  0  0  0  0  0  0
    2.3483    1.8539    2.7154 O   0  0  0  0  0  0  0  0  0  0  0  0
    2.2590    4.1691    2.0712 C   0  0  0  0  0  0  0  0  0  0  0  0
    2.7341    4.4811    3.4222 C   0  0  0  0  0  0  0  0  0  0  0  0
    3.1111    4.8064    4.4713 N   0  0  0  0  0  0  0  0  0  0  0  0
    2.5101    0.9894   -2.2633 H   0  0  0  0  0  0  0  0  0  0  0  0
    1.4475   -0.0544   -3.2255 H   0  0  0  0  0  0  0  0  0  0  0  0
    1.6320    1.6406   -3.6522 H   0  0  0  0  0  0  0  0  0  0  0  0
   -0.5334    1.1318   -2.5237 H   0  0  0  0  0  0  0  0  0  0  0  0
   -0.5821    3.0660   -1.1085 H   0  0  0  0  0  0  0  0  0  0  0  0
    0.4986    3.4149   -2.4498 H   0  0  0  0  0  0  0  0  0  0  0  0
    1.3822    4.2001   -0.2734 H   0  0  0  0  0  0  0  0  0  0  0  0
    2.4808    3.0401   -1.0065 H   0  0  0  0  0  0  0  0  0  0  0  0
    2.3442    0.5209    0.0513 H   0  0  0  0  0  0  0  0  0  0  0  0
    1.1634    0.3307    1.3438 H   0  0  0  0  0  0  0  0  0  0  0  0
   -0.6890    0.8308   -0.1448 H   0  0  0  0  0  0  0  0  0  0  0  0
    1.7463   -1.8731    0.1754 H   0  0  0  0  0  0  0  0  0  0  0  0
    2.1320   -1.3732   -1.4729 H   0  0  0  0  0  0  0  0  0  0  0  0
    1.1476   -2.8014   -1.2228 H   0  0  0  0  0  0  0  0  0  0  0  0
   -2.6124    0.0412   -2.2131 H   0  0  0  0  0  0  0  0  0  0  0  0
   -5.2504   -0.3510   -1.6429 H   0  0  0  0  0  0  0  0  0  0  0  0
   -5.3252   -1.9236    0.3386 H   0  0  0  0  0  0  0  0  0  0  0  0
   -1.3826   -3.6505    2.3363 H   0  0  0  0  0  0  0  0  0  0  0  0
    2.9961    4.5229    1.3425 H   0  0  0  0  0  0  0  0  0  0  0  0
    1.3106    4.6899    1.9009 H   0  0  0  0  0  0  0  0  0  0  0  0
  1  2  1  0
  2  3  1  0
  3  4  1  0
  4  5  1  0
  5  6  1  0
  6  7  1  0
  7  8  1  0
  8  9  1  0
  8 10  1  0
 10 11  2  0
 11 12  1  0
 12 13  2  0
 13 14  1  0
 14 15  1  0
 15 16  2  0
 16 17  1  0
 17 18  2  0
  5 19  1  0
 19 20  2  0
 19 21  1  0
 21 22  1  0
 22 23  3  0
  7  2  1  0
 18 10  1  0
 15 11  1  0
  1 24  1  0
  1 25  1  0
  1 26  1  0
  2 27  1  6
  3 28  1  0
  3 29  1  0
  4 30  1  0
  4 31  1  0
  6 32  1  0
  6 33  1  0
  7 34  1  1
  9 35  1  0
  9 36  1  0
  9 37  1  0
 12 38  1  0
 13 39  1  0
 14 40  1  0
 17 41  1  0
 21 42  1  0
 21 43  1  0
M  END
>  <energy_abs>  (11) 
12.280375872034739

>  <SMILES>  (11) 
C[C@@H]1CCN(C[C@@H]1N(C)c2c3cc[nH]c3ncn2)C(=O)CC#N

>  <cluster_no>  (11) 
11

>  <fda_drugs_id>  (11) 
UJLAWZDWDVHWOW-YPMHNXCESA-N

>  <initial_conformation_id>  (11) 
263

>  <minimize_method>  (11) 
MMFF

$$$$

     RDKit          3D

 43 45  0  0  0  0  0  0  0  0999 V2000
   -1.5222    2.3781   -1.7663 C   0  0  0  0  0  0  0  0  0  0  0  0
   -0.5805    2.5295   -0.5726 C   0  0  2  0  0  0  0  0  0  0  0  0
    0.8075    3.0029   -1.0189 C   0  0  0  0  0  0  0  0  0  0  0  0
    1.7498    3.2021    0.1624 C   0  0  0  0  0  0  0  0  0  0  0  0
    1.8094    2.0355    1.0409 N   0  0  0  0  0  0  0  0  0  0  0  0
    0.5125    1.5101    1.4921 C   0  0  0  0  0  0  0  0  0  0  0  0
   -0.5325    1.2993    0.3677 C   0  0  2  0  0  0  0  0  0  0  0  0
   -0.3409   -0.0165   -0.2857 N   0  0  0  0  0  0  0  0  0  0  0  0
    0.8044   -0.2746   -1.1448 C   0  0  0  0  0  0  0  0  0  0  0  0
   -1.4973   -0.7109   -0.6625 C   0  0  0  0  0  0  0  0  0  0  0  0
   -2.5264   -1.0724    0.2373 C   0  0  0  0  0  0  0  0  0  0  0  0
   -2.7659   -0.9667    1.6411 C   0  0  0  0  0  0  0  0  0  0  0  0
   -3.9915   -1.5391    1.9103 C   0  0  0  0  0  0  0  0  0  0  0  0
   -4.4983   -2.0062    0.7257 N   0  0  0  0  0  0  0  0  0  0  0  0
   -3.6175   -1.7487   -0.2888 C   0  0  0  0  0  0  0  0  0  0  0  0
   -3.8089   -2.1135   -1.5634 N   0  0  0  0  0  0  0  0  0  0  0  0
   -2.7626   -1.7639   -2.3262 C   0  0  0  0  0  0  0  0  0  0  0  0
   -1.6445   -1.1095   -1.9569 N   0  0  0  0  0  0  0  0  0  0  0  0
    2.9163    1.7551    1.8568 C   0  0  0  0  0  0  0  0  0  0  0  0
    2.8139    1.0479    2.8591 O   0  0  0  0  0  0  0  0  0  0  0  0
    4.2425    2.3568    1.4359 C   0  0  0  0  0  0  0  0  0  0  0  0
    5.3674    1.8424    2.2224 C   0  0  0  0  0  0  0  0  0  0  0  0
    6.3073    1.4807    2.8005 N   0  0  0  0  0  0  0  0  0  0  0  0
   -1.6454    3.3393   -2.2777 H   0  0  0  0  0  0  0  0  0  0  0  0
   -1.1406    1.6666   -2.5035 H   0  0  0  0  0  0  0  0  0  0  0  0
   -2.5151    2.0494   -1.4429 H   0  0  0  0  0  0  0  0  0  0  0  0
   -0.9961    3.3495    0.0331 H   0  0  0  0  0  0  0  0  0  0  0  0
    1.2517    2.2952   -1.7247 H   0  0  0  0  0  0  0  0  0  0  0  0
    0.7169    3.9527   -1.5607 H   0  0  0  0  0  0  0  0  0  0  0  0
    2.7405    3.4574   -0.2207 H   0  0  0  0  0  0  0  0  0  0  0  0
    1.4184    4.0486    0.7763 H   0  0  0  0  0  0  0  0  0  0  0  0
    0.1247    2.2418    2.2132 H   0  0  0  0  0  0  0  0  0  0  0  0
    0.6548    0.5707    2.0393 H   0  0  0  0  0  0  0  0  0  0  0  0
   -1.4993    1.2890    0.8849 H   0  0  0  0  0  0  0  0  0  0  0  0
    0.6799    0.1593   -2.1422 H   0  0  0  0  0  0  0  0  0  0  0  0
    0.9678   -1.3535   -1.2604 H   0  0  0  0  0  0  0  0  0  0  0  0
    1.7266    0.1189   -0.7108 H   0  0  0  0  0  0  0  0  0  0  0  0
   -2.1021   -0.5302    2.3756 H   0  0  0  0  0  0  0  0  0  0  0  0
   -4.5350   -1.6671    2.8370 H   0  0  0  0  0  0  0  0  0  0  0  0
   -5.3733   -2.4932    0.5970 H   0  0  0  0  0  0  0  0  0  0  0  0
   -2.8231   -2.0411   -3.3740 H   0  0  0  0  0  0  0  0  0  0  0  0
    4.4162    2.1244    0.3797 H   0  0  0  0  0  0  0  0  0  0  0  0
    4.1862    3.4437    1.5578 H   0  0  0  0  0  0  0  0  0  0  0  0
  1  2  1  0
  2  3  1  0
  3  4  1  0
  4  5  1  0
  5  6  1  0
  6  7  1  0
  7  8  1  0
  8  9  1  0
  8 10  1  0
 10 11  2  0
 11 12  1  0
 12 13  2  0
 13 14  1  0
 14 15  1  0
 15 16  2  0
 16 17  1  0
 17 18  2  0
  5 19  1  0
 19 20  2  0
 19 21  1  0
 21 22  1  0
 22 23  3  0
  7  2  1  0
 18 10  1  0
 15 11  1  0
  1 24  1  0
  1 25  1  0
  1 26  1  0
  2 27  1  1
  3 28  1  0
  3 29  1  0
  4 30  1  0
  4 31  1  0
  6 32  1  0
  6 33  1  0
  7 34  1  1
  9 35  1  0
  9 36  1  0
  9 37  1  0
 12 38  1  0
 13 39  1  0
 14 40  1  0
 17 41  1  0
 21 42  1  0
 21 43  1  0
M  END
>  <energy_abs>  (12) 
12.294693406075075

>  <SMILES>  (12) 
C[C@@H]1CCN(C[C@@H]1N(C)c2c3cc[nH]c3ncn2)C(=O)CC#N

>  <cluster_no>  (12) 
12

>  <fda_drugs_id>  (12) 
UJLAWZDWDVHWOW-YPMHNXCESA-N

>  <initial_conformation_id>  (12) 
258

>  <minimize_method>  (12) 
MMFF

$$$$

     RDKit          3D

 43 45  0  0  0  0  0  0  0  0999 V2000
   -1.8142    2.0735    2.1559 C   0  0  0  0  0  0  0  0  0  0  0  0
   -0.3381    1.6790    2.1634 C   0  0  2  0  0  0  0  0  0  0  0  0
    0.5612    2.8900    1.8870 C   0  0  0  0  0  0  0  0  0  0  0  0
    2.0404    2.5234    1.9304 C   0  0  0  0  0  0  0  0  0  0  0  0
    2.3580    1.3804    1.0758 N   0  0  0  0  0  0  0  0  0  0  0  0
    1.5305    0.1839    1.2840 C   0  0  0  0  0  0  0  0  0  0  0  0
    0.0033    0.4494    1.2844 C   0  0  2  0  0  0  0  0  0  0  0  0
   -0.5255    0.4654   -0.0995 N   0  0  0  0  0  0  0  0  0  0  0  0
   -0.2300    1.5651   -1.0078 C   0  0  0  0  0  0  0  0  0  0  0  0
   -1.7879   -0.1075   -0.2992 C   0  0  0  0  0  0  0  0  0  0  0  0
   -2.1033   -1.4469    0.0263 C   0  0  0  0  0  0  0  0  0  0  0  0
   -1.4082   -2.5845    0.5379 C   0  0  0  0  0  0  0  0  0  0  0  0
   -2.3028   -3.6310    0.6206 C   0  0  0  0  0  0  0  0  0  0  0  0
   -3.5118   -3.1779    0.1606 N   0  0  0  0  0  0  0  0  0  0  0  0
   -3.4022   -1.8681   -0.2186 C   0  0  0  0  0  0  0  0  0  0  0  0
   -4.4034   -1.1497   -0.7436 N   0  0  0  0  0  0  0  0  0  0  0  0
   -3.9940    0.0891   -1.0555 C   0  0  0  0  0  0  0  0  0  0  0  0
   -2.7750    0.6330   -0.8761 N   0  0  0  0  0  0  0  0  0  0  0  0
    3.5734    1.2111    0.4136 C   0  0  0  0  0  0  0  0  0  0  0  0
    3.9350    0.1134   -0.0188 O   0  0  0  0  0  0  0  0  0  0  0  0
    4.4758    2.4094    0.2215 C   0  0  0  0  0  0  0  0  0  0  0  0
    3.9071    3.3290   -0.7624 C   0  0  0  0  0  0  0  0  0  0  0  0
    3.4538    4.0888   -1.5140 N   0  0  0  0  0  0  0  0  0  0  0  0
   -2.4519    1.2086    2.3650 H   0  0  0  0  0  0  0  0  0  0  0  0
   -2.1187    2.5101    1.2009 H   0  0  0  0  0  0  0  0  0  0  0  0
   -2.0117    2.8218    2.9315 H   0  0  0  0  0  0  0  0  0  0  0  0
   -0.1170    1.3732    3.1977 H   0  0  0  0  0  0  0  0  0  0  0  0
    0.3696    3.6698    2.6346 H   0  0  0  0  0  0  0  0  0  0  0  0
    0.3244    3.3374    0.9172 H   0  0  0  0  0  0  0  0  0  0  0  0
    2.3344    2.2494    2.9510 H   0  0  0  0  0  0  0  0  0  0  0  0
    2.6267    3.4029    1.6588 H   0  0  0  0  0  0  0  0  0  0  0  0
    1.7677   -0.5834    0.5381 H   0  0  0  0  0  0  0  0  0  0  0  0
    1.8273   -0.2210    2.2604 H   0  0  0  0  0  0  0  0  0  0  0  0
   -0.4282   -0.4123    1.8078 H   0  0  0  0  0  0  0  0  0  0  0  0
    0.8230    1.8507   -0.9604 H   0  0  0  0  0  0  0  0  0  0  0  0
   -0.8381    2.4507   -0.7977 H   0  0  0  0  0  0  0  0  0  0  0  0
   -0.4098    1.2671   -2.0484 H   0  0  0  0  0  0  0  0  0  0  0  0
   -0.3602   -2.6314    0.8027 H   0  0  0  0  0  0  0  0  0  0  0  0
   -2.1809   -4.6544    0.9497 H   0  0  0  0  0  0  0  0  0  0  0  0
   -4.3630   -3.7145    0.0785 H   0  0  0  0  0  0  0  0  0  0  0  0
   -4.7378    0.7372   -1.5086 H   0  0  0  0  0  0  0  0  0  0  0  0
    4.6672    2.8953    1.1826 H   0  0  0  0  0  0  0  0  0  0  0  0
    5.4486    2.0479   -0.1324 H   0  0  0  0  0  0  0  0  0  0  0  0
  1  2  1  0
  2  3  1  0
  3  4  1  0
  4  5  1  0
  5  6  1  0
  6  7  1  0
  7  8  1  0
  8  9  1  0
  8 10  1  0
 10 11  2  0
 11 12  1  0
 12 13  2  0
 13 14  1  0
 14 15  1  0
 15 16  2  0
 16 17  1  0
 17 18  2  0
  5 19  1  0
 19 20  2  0
 19 21  1  0
 21 22  1  0
 22 23  3  0
  7  2  1  0
 18 10  1  0
 15 11  1  0
  1 24  1  0
  1 25  1  0
  1 26  1  0
  2 27  1  1
  3 28  1  0
  3 29  1  0
  4 30  1  0
  4 31  1  0
  6 32  1  0
  6 33  1  0
  7 34  1  1
  9 35  1  0
  9 36  1  0
  9 37  1  0
 12 38  1  0
 13 39  1  0
 14 40  1  0
 17 41  1  0
 21 42  1  0
 21 43  1  0
M  END
>  <energy_abs>  (13) 
11.678378154023154

>  <SMILES>  (13) 
C[C@@H]1CCN(C[C@@H]1N(C)c2c3cc[nH]c3ncn2)C(=O)CC#N

>  <cluster_no>  (13) 
13

>  <fda_drugs_id>  (13) 
UJLAWZDWDVHWOW-YPMHNXCESA-N

>  <initial_conformation_id>  (13) 
204

>  <minimize_method>  (13) 
MMFF

$$$$

     RDKit          3D

 43 45  0  0  0  0  0  0  0  0999 V2000
   -0.3413   -0.6575    3.7562 C   0  0  0  0  0  0  0  0  0  0  0  0
    0.5736   -0.0575    2.6885 C   0  0  2  0  0  0  0  0  0  0  0  0
    1.4539    1.0629    3.2550 C   0  0  0  0  0  0  0  0  0  0  0  0
    2.5448    1.4413    2.2515 C   0  0  0  0  0  0  0  0  0  0  0  0
    2.0738    1.4831    0.8667 N   0  0  0  0  0  0  0  0  0  0  0  0
    0.6215    1.5550    0.6717 C   0  0  0  0  0  0  0  0  0  0  0  0
   -0.1334    0.3898    1.3711 C   0  0  2  0  0  0  0  0  0  0  0  0
   -1.5790    0.6738    1.5655 N   0  0  0  0  0  0  0  0  0  0  0  0
   -1.9679    1.9290    2.2104 C   0  0  0  0  0  0  0  0  0  0  0  0
   -2.3322    0.4323    0.3958 C   0  0  0  0  0  0  0  0  0  0  0  0
   -2.5482   -0.8631   -0.1234 C   0  0  0  0  0  0  0  0  0  0  0  0
   -2.2045   -2.1979    0.2447 C   0  0  0  0  0  0  0  0  0  0  0  0
   -2.7313   -3.0497   -0.7037 C   0  0  0  0  0  0  0  0  0  0  0  0
   -3.3912   -2.2821   -1.6286 N   0  0  0  0  0  0  0  0  0  0  0  0
   -3.2993   -0.9612   -1.2847 C   0  0  0  0  0  0  0  0  0  0  0  0
   -3.8566    0.0415   -1.9763 N   0  0  0  0  0  0  0  0  0  0  0  0
   -3.6113    1.2246   -1.3925 C   0  0  0  0  0  0  0  0  0  0  0  0
   -2.9060    1.4707   -0.2702 N   0  0  0  0  0  0  0  0  0  0  0  0
    2.9127    1.6957   -0.2311 C   0  0  0  0  0  0  0  0  0  0  0  0
    2.4632    1.8516   -1.3654 O   0  0  0  0  0  0  0  0  0  0  0  0
    4.4037    1.6995    0.0497 C   0  0  0  0  0  0  0  0  0  0  0  0
    5.1999    2.0007   -1.1434 C   0  0  0  0  0  0  0  0  0  0  0  0
    5.8973    2.2359   -2.0416 N   0  0  0  0  0  0  0  0  0  0  0  0
   -0.9629   -1.4552    3.3378 H   0  0  0  0  0  0  0  0  0  0  0  0
    0.2558   -1.0968    4.5631 H   0  0  0  0  0  0  0  0  0  0  0  0
   -0.9953    0.0914    4.2109 H   0  0  0  0  0  0  0  0  0  0  0  0
    1.2617   -0.8689    2.4046 H   0  0  0  0  0  0  0  0  0  0  0  0
    1.9248    0.7551    4.1961 H   0  0  0  0  0  0  0  0  0  0  0  0
    0.8432    1.9432    3.4856 H   0  0  0  0  0  0  0  0  0  0  0  0
    2.9590    2.4238    2.5041 H   0  0  0  0  0  0  0  0  0  0  0  0
    3.3620    0.7142    2.3092 H   0  0  0  0  0  0  0  0  0  0  0  0
    0.3229    2.5323    1.0654 H   0  0  0  0  0  0  0  0  0  0  0  0
    0.3629    1.5624   -0.3928 H   0  0  0  0  0  0  0  0  0  0  0  0
   -0.0241   -0.4801    0.7085 H   0  0  0  0  0  0  0  0  0  0  0  0
   -3.0296    1.9038    2.4850 H   0  0  0  0  0  0  0  0  0  0  0  0
   -1.7950    2.8076    1.5789 H   0  0  0  0  0  0  0  0  0  0  0  0
   -1.4130    2.0787    3.1402 H   0  0  0  0  0  0  0  0  0  0  0  0
   -1.6355   -2.4959    1.1150 H   0  0  0  0  0  0  0  0  0  0  0  0
   -2.6994   -4.1271   -0.7970 H   0  0  0  0  0  0  0  0  0  0  0  0
   -3.8872   -2.6153   -2.4425 H   0  0  0  0  0  0  0  0  0  0  0  0
   -4.0336    2.0950   -1.8853 H   0  0  0  0  0  0  0  0  0  0  0  0
    4.6874    0.7130    0.4313 H   0  0  0  0  0  0  0  0  0  0  0  0
    4.6210    2.4492    0.8174 H   0  0  0  0  0  0  0  0  0  0  0  0
  1  2  1  0
  2  3  1  0
  3  4  1  0
  4  5  1  0
  5  6  1  0
  6  7  1  0
  7  8  1  0
  8  9  1  0
  8 10  1  0
 10 11  2  0
 11 12  1  0
 12 13  2  0
 13 14  1  0
 14 15  1  0
 15 16  2  0
 16 17  1  0
 17 18  2  0
  5 19  1  0
 19 20  2  0
 19 21  1  0
 21 22  1  0
 22 23  3  0
  7  2  1  0
 18 10  1  0
 15 11  1  0
  1 24  1  0
  1 25  1  0
  1 26  1  0
  2 27  1  6
  3 28  1  0
  3 29  1  0
  4 30  1  0
  4 31  1  0
  6 32  1  0
  6 33  1  0
  7 34  1  6
  9 35  1  0
  9 36  1  0
  9 37  1  0
 12 38  1  0
 13 39  1  0
 14 40  1  0
 17 41  1  0
 21 42  1  0
 21 43  1  0
M  END
>  <energy_abs>  (14) 
15.621283904124741

>  <SMILES>  (14) 
C[C@@H]1CCN(C[C@@H]1N(C)c2c3cc[nH]c3ncn2)C(=O)CC#N

>  <cluster_no>  (14) 
14

>  <fda_drugs_id>  (14) 
UJLAWZDWDVHWOW-YPMHNXCESA-N

>  <initial_conformation_id>  (14) 
105

>  <minimize_method>  (14) 
MMFF

$$$$

     RDKit          3D

 43 45  0  0  0  0  0  0  0  0999 V2000
   -1.3923    2.2310   -1.4834 C   0  0  0  0  0  0  0  0  0  0  0  0
   -0.1202    2.0755   -0.6550 C   0  0  2  0  0  0  0  0  0  0  0  0
    1.1085    2.6700   -1.3499 C   0  0  0  0  0  0  0  0  0  0  0  0
    2.2514    2.8425   -0.3460 C   0  0  0  0  0  0  0  0  0  0  0  0
    2.3050    1.7920    0.6738 N   0  0  0  0  0  0  0  0  0  0  0  0
    1.6725    0.5145    0.3326 C   0  0  0  0  0  0  0  0  0  0  0  0
    0.1856    0.6509   -0.1083 C   0  0  2  0  0  0  0  0  0  0  0  0
   -0.1685   -0.4783   -0.9993 N   0  0  0  0  0  0  0  0  0  0  0  0
    0.3782   -0.5637   -2.3491 C   0  0  0  0  0  0  0  0  0  0  0  0
   -1.4616   -1.0027   -0.8763 C   0  0  0  0  0  0  0  0  0  0  0  0
   -2.0105   -1.4802    0.3368 C   0  0  0  0  0  0  0  0  0  0  0  0
   -1.5678   -1.6569    1.6832 C   0  0  0  0  0  0  0  0  0  0  0  0
   -2.6094   -2.1948    2.4098 C   0  0  0  0  0  0  0  0  0  0  0  0
   -3.6640   -2.3688    1.5528 N   0  0  0  0  0  0  0  0  0  0  0  0
   -3.3113   -1.9618    0.2953 C   0  0  0  0  0  0  0  0  0  0  0  0
   -4.1150   -2.0394   -0.7734 N   0  0  0  0  0  0  0  0  0  0  0  0
   -3.4916   -1.6020   -1.8769 C   0  0  0  0  0  0  0  0  0  0  0  0
   -2.2417   -1.1124   -1.9884 N   0  0  0  0  0  0  0  0  0  0  0  0
    3.1056    1.8524    1.8118 C   0  0  0  0  0  0  0  0  0  0  0  0
    3.2165    0.8983    2.5854 O   0  0  0  0  0  0  0  0  0  0  0  0
    3.8547    3.1347    2.1021 C   0  0  0  0  0  0  0  0  0  0  0  0
    2.9955    4.0710    2.8235 C   0  0  0  0  0  0  0  0  0  0  0  0
    2.3225    4.8467    3.3649 N   0  0  0  0  0  0  0  0  0  0  0  0
   -1.3150    1.7675   -2.4683 H   0  0  0  0  0  0  0  0  0  0  0  0
   -2.2555    1.8085   -0.9597 H   0  0  0  0  0  0  0  0  0  0  0  0
   -1.6047    3.2934   -1.6495 H   0  0  0  0  0  0  0  0  0  0  0  0
   -0.2922    2.7032    0.2341 H   0  0  0  0  0  0  0  0  0  0  0  0
    1.4319    2.0237   -2.1725 H   0  0  0  0  0  0  0  0  0  0  0  0
    0.8780    3.6442   -1.7972 H   0  0  0  0  0  0  0  0  0  0  0  0
    3.2133    2.8589   -0.8708 H   0  0  0  0  0  0  0  0  0  0  0  0
    2.1378    3.8066    0.1600 H   0  0  0  0  0  0  0  0  0  0  0  0
    2.2971    0.0772   -0.4536 H   0  0  0  0  0  0  0  0  0  0  0  0
    1.7224   -0.1899    1.1710 H   0  0  0  0  0  0  0  0  0  0  0  0
   -0.3978    0.5856    0.8178 H   0  0  0  0  0  0  0  0  0  0  0  0
    1.4391   -0.3004   -2.3695 H   0  0  0  0  0  0  0  0  0  0  0  0
    0.3179   -1.5925   -2.7253 H   0  0  0  0  0  0  0  0  0  0  0  0
   -0.1369    0.0900   -3.0582 H   0  0  0  0  0  0  0  0  0  0  0  0
   -0.5869   -1.4228    2.0759 H   0  0  0  0  0  0  0  0  0  0  0  0
   -2.6858   -2.4759    3.4519 H   0  0  0  0  0  0  0  0  0  0  0  0
   -4.5669   -2.7575    1.7828 H   0  0  0  0  0  0  0  0  0  0  0  0
   -4.0651   -1.6468   -2.7976 H   0  0  0  0  0  0  0  0  0  0  0  0
    4.7314    2.8817    2.7099 H   0  0  0  0  0  0  0  0  0  0  0  0
    4.2465    3.5737    1.1806 H   0  0  0  0  0  0  0  0  0  0  0  0
  1  2  1  0
  2  3  1  0
  3  4  1  0
  4  5  1  0
  5  6  1  0
  6  7  1  0
  7  8  1  0
  8  9  1  0
  8 10  1  0
 10 11  2  0
 11 12  1  0
 12 13  2  0
 13 14  1  0
 14 15  1  0
 15 16  2  0
 16 17  1  0
 17 18  2  0
  5 19  1  0
 19 20  2  0
 19 21  1  0
 21 22  1  0
 22 23  3  0
  7  2  1  0
 18 10  1  0
 15 11  1  0
  1 24  1  0
  1 25  1  0
  1 26  1  0
  2 27  1  1
  3 28  1  0
  3 29  1  0
  4 30  1  0
  4 31  1  0
  6 32  1  0
  6 33  1  0
  7 34  1  1
  9 35  1  0
  9 36  1  0
  9 37  1  0
 12 38  1  0
 13 39  1  0
 14 40  1  0
 17 41  1  0
 21 42  1  0
 21 43  1  0
M  END
>  <energy_abs>  (15) 
17.701490838608507

>  <SMILES>  (15) 
C[C@@H]1CCN(C[C@@H]1N(C)c2c3cc[nH]c3ncn2)C(=O)CC#N

>  <cluster_no>  (15) 
15

>  <fda_drugs_id>  (15) 
UJLAWZDWDVHWOW-YPMHNXCESA-N

>  <initial_conformation_id>  (15) 
285

>  <minimize_method>  (15) 
MMFF

$$$$

     RDKit          3D

 43 45  0  0  0  0  0  0  0  0999 V2000
   -1.4694    1.8324   -2.1474 C   0  0  0  0  0  0  0  0  0  0  0  0
   -0.3162    2.0192   -1.1655 C   0  0  2  0  0  0  0  0  0  0  0  0
    0.9445    2.5641   -1.8398 C   0  0  0  0  0  0  0  0  0  0  0  0
    1.9254    3.0870   -0.7890 C   0  0  0  0  0  0  0  0  0  0  0  0
    1.9253    2.3265    0.4627 N   0  0  0  0  0  0  0  0  0  0  0  0
    1.4339    0.9477    0.3955 C   0  0  0  0  0  0  0  0  0  0  0  0
    0.0219    0.8095   -0.2500 C   0  0  2  0  0  0  0  0  0  0  0  0
   -0.1011   -0.5358   -0.8575 N   0  0  0  0  0  0  0  0  0  0  0  0
    0.6401   -0.8670   -2.0724 C   0  0  0  0  0  0  0  0  0  0  0  0
   -1.3619   -1.1461   -0.7866 C   0  0  0  0  0  0  0  0  0  0  0  0
   -2.0597   -1.3818    0.4210 C   0  0  0  0  0  0  0  0  0  0  0  0
   -1.8212   -1.1956    1.8168 C   0  0  0  0  0  0  0  0  0  0  0  0
   -2.9254   -1.6522    2.5054 C   0  0  0  0  0  0  0  0  0  0  0  0
   -3.8208   -2.1259    1.5823 N   0  0  0  0  0  0  0  0  0  0  0  0
   -3.3041   -1.9882    0.3233 C   0  0  0  0  0  0  0  0  0  0  0  0
   -3.9252   -2.3921   -0.7923 N   0  0  0  0  0  0  0  0  0  0  0  0
   -3.1687   -2.1632   -1.8750 C   0  0  0  0  0  0  0  0  0  0  0  0
   -1.9511   -1.5896   -1.9320 N   0  0  0  0  0  0  0  0  0  0  0  0
    2.7106    2.8377    1.5023 C   0  0  0  0  0  0  0  0  0  0  0  0
    3.2773    3.9253    1.3909 O   0  0  0  0  0  0  0  0  0  0  0  0
    2.8168    2.0022    2.7620 C   0  0  0  0  0  0  0  0  0  0  0  0
    3.5876    2.6691    3.8154 C   0  0  0  0  0  0  0  0  0  0  0  0
    4.1836    3.1353    4.6961 N   0  0  0  0  0  0  0  0  0  0  0  0
   -2.3619    1.4570   -1.6373 H   0  0  0  0  0  0  0  0  0  0  0  0
   -1.7376    2.7944   -2.5991 H   0  0  0  0  0  0  0  0  0  0  0  0
   -1.2211    1.1573   -2.9680 H   0  0  0  0  0  0  0  0  0  0  0  0
   -0.6589    2.8170   -0.4871 H   0  0  0  0  0  0  0  0  0  0  0  0
    0.7022    3.3764   -2.5353 H   0  0  0  0  0  0  0  0  0  0  0  0
    1.4252    1.7827   -2.4375 H   0  0  0  0  0  0  0  0  0  0  0  0
    2.9441    3.0844   -1.1950 H   0  0  0  0  0  0  0  0  0  0  0  0
    1.6788    4.1280   -0.5455 H   0  0  0  0  0  0  0  0  0  0  0  0
    2.1977    0.3900   -0.1568 H   0  0  0  0  0  0  0  0  0  0  0  0
    1.4003    0.4885    1.3874 H   0  0  0  0  0  0  0  0  0  0  0  0
   -0.6834    0.8977    0.5852 H   0  0  0  0  0  0  0  0  0  0  0  0
    1.6714   -0.5074   -2.0214 H   0  0  0  0  0  0  0  0  0  0  0  0
    0.7084   -1.9548   -2.1977 H   0  0  0  0  0  0  0  0  0  0  0  0
    0.1887   -0.4457   -2.9748 H   0  0  0  0  0  0  0  0  0  0  0  0
   -0.9311   -0.7809    2.2689 H   0  0  0  0  0  0  0  0  0  0  0  0
   -3.1458   -1.6917    3.5640 H   0  0  0  0  0  0  0  0  0  0  0  0
   -4.7212   -2.5403    1.7755 H   0  0  0  0  0  0  0  0  0  0  0  0
   -3.5880   -2.4781   -2.8256 H   0  0  0  0  0  0  0  0  0  0  0  0
    1.8070    1.8014    3.1357 H   0  0  0  0  0  0  0  0  0  0  0  0
    3.3007    1.0521    2.5117 H   0  0  0  0  0  0  0  0  0  0  0  0
  1  2  1  0
  2  3  1  0
  3  4  1  0
  4  5  1  0
  5  6  1  0
  6  7  1  0
  7  8  1  0
  8  9  1  0
  8 10  1  0
 10 11  2  0
 11 12  1  0
 12 13  2  0
 13 14  1  0
 14 15  1  0
 15 16  2  0
 16 17  1  0
 17 18  2  0
  5 19  1  0
 19 20  2  0
 19 21  1  0
 21 22  1  0
 22 23  3  0
  7  2  1  0
 18 10  1  0
 15 11  1  0
  1 24  1  0
  1 25  1  0
  1 26  1  0
  2 27  1  1
  3 28  1  0
  3 29  1  0
  4 30  1  0
  4 31  1  0
  6 32  1  0
  6 33  1  0
  7 34  1  1
  9 35  1  0
  9 36  1  0
  9 37  1  0
 12 38  1  0
 13 39  1  0
 14 40  1  0
 17 41  1  0
 21 42  1  0
 21 43  1  0
M  END
>  <energy_abs>  (16) 
18.66020880701284

>  <SMILES>  (16) 
C[C@@H]1CCN(C[C@@H]1N(C)c2c3cc[nH]c3ncn2)C(=O)CC#N

>  <cluster_no>  (16) 
16

>  <fda_drugs_id>  (16) 
UJLAWZDWDVHWOW-YPMHNXCESA-N

>  <initial_conformation_id>  (16) 
284

>  <minimize_method>  (16) 
MMFF

$$$$

     RDKit          3D

 43 45  0  0  0  0  0  0  0  0999 V2000
    2.0388   -1.4195   -1.2563 C   0  0  0  0  0  0  0  0  0  0  0  0
    1.9204    0.0898   -1.4787 C   0  0  2  0  0  0  0  0  0  0  0  0
    3.0513    0.7688   -0.6639 C   0  0  0  0  0  0  0  0  0  0  0  0
    2.6887    2.1515   -0.1398 C   0  0  0  0  0  0  0  0  0  0  0  0
    1.4985    2.0935    0.7085 N   0  0  0  0  0  0  0  0  0  0  0  0
    0.4337    1.1578    0.3049 C   0  0  0  0  0  0  0  0  0  0  0  0
    0.5350    0.7333   -1.1748 C   0  0  2  0  0  0  0  0  0  0  0  0
   -0.6620    0.0453   -1.7199 N   0  0  0  0  0  0  0  0  0  0  0  0
   -0.6667   -0.2046   -3.1597 C   0  0  0  0  0  0  0  0  0  0  0  0
   -1.2195   -1.0117   -0.9959 C   0  0  0  0  0  0  0  0  0  0  0  0
   -2.2001   -0.8187    0.0007 C   0  0  0  0  0  0  0  0  0  0  0  0
   -2.9093    0.2851    0.5596 C   0  0  0  0  0  0  0  0  0  0  0  0
   -3.7601   -0.2013    1.5300 C   0  0  0  0  0  0  0  0  0  0  0  0
   -3.6080   -1.5625    1.5691 N   0  0  0  0  0  0  0  0  0  0  0  0
   -2.6890   -1.9521    0.6337 C   0  0  0  0  0  0  0  0  0  0  0  0
   -2.3498   -3.2254    0.3911 N   0  0  0  0  0  0  0  0  0  0  0  0
   -1.4590   -3.3033   -0.6083 C   0  0  0  0  0  0  0  0  0  0  0  0
   -0.9019   -2.2954   -1.3085 N   0  0  0  0  0  0  0  0  0  0  0  0
    1.2903    2.8545    1.8599 C   0  0  0  0  0  0  0  0  0  0  0  0
    0.2882    2.6935    2.5566 O   0  0  0  0  0  0  0  0  0  0  0  0
    2.3567    3.8714    2.2128 C   0  0  0  0  0  0  0  0  0  0  0  0
    1.9219    4.7965    3.2631 C   0  0  0  0  0  0  0  0  0  0  0  0
    1.6443    5.5718    4.0819 N   0  0  0  0  0  0  0  0  0  0  0  0
    3.0824   -1.7432   -1.3464 H   0  0  0  0  0  0  0  0  0  0  0  0
    1.4855   -1.9816   -2.0107 H   0  0  0  0  0  0  0  0  0  0  0  0
    1.6868   -1.7078   -0.2609 H   0  0  0  0  0  0  0  0  0  0  0  0
    2.1329    0.2690   -2.5419 H   0  0  0  0  0  0  0  0  0  0  0  0
    3.9534    0.8340   -1.2844 H   0  0  0  0  0  0  0  0  0  0  0  0
    3.3164    0.1434    0.1997 H   0  0  0  0  0  0  0  0  0  0  0  0
    2.4758    2.8407   -0.9647 H   0  0  0  0  0  0  0  0  0  0  0  0
    3.5383    2.5571    0.4151 H   0  0  0  0  0  0  0  0  0  0  0  0
    0.4948    0.2909    0.9731 H   0  0  0  0  0  0  0  0  0  0  0  0
   -0.5222    1.6564    0.4859 H   0  0  0  0  0  0  0  0  0  0  0  0
    0.5470    1.6875   -1.7249 H   0  0  0  0  0  0  0  0  0  0  0  0
   -0.3916    0.7086   -3.6991 H   0  0  0  0  0  0  0  0  0  0  0  0
   -1.6694   -0.4843   -3.5049 H   0  0  0  0  0  0  0  0  0  0  0  0
    0.0351   -0.9910   -3.4549 H   0  0  0  0  0  0  0  0  0  0  0  0
   -2.8073    1.3249    0.2779 H   0  0  0  0  0  0  0  0  0  0  0  0
   -4.4576    0.3010    2.1874 H   0  0  0  0  0  0  0  0  0  0  0  0
   -4.1034   -2.2042    2.1707 H   0  0  0  0  0  0  0  0  0  0  0  0
   -1.1459   -4.3037   -0.8904 H   0  0  0  0  0  0  0  0  0  0  0  0
    2.6088    4.4522    1.3192 H   0  0  0  0  0  0  0  0  0  0  0  0
    3.2490    3.3320    2.5479 H   0  0  0  0  0  0  0  0  0  0  0  0
  1  2  1  0
  2  3  1  0
  3  4  1  0
  4  5  1  0
  5  6  1  0
  6  7  1  0
  7  8  1  0
  8  9  1  0
  8 10  1  0
 10 11  2  0
 11 12  1  0
 12 13  2  0
 13 14  1  0
 14 15  1  0
 15 16  2  0
 16 17  1  0
 17 18  2  0
  5 19  1  0
 19 20  2  0
 19 21  1  0
 21 22  1  0
 22 23  3  0
  7  2  1  0
 18 10  1  0
 15 11  1  0
  1 24  1  0
  1 25  1  0
  1 26  1  0
  2 27  1  6
  3 28  1  0
  3 29  1  0
  4 30  1  0
  4 31  1  0
  6 32  1  0
  6 33  1  0
  7 34  1  6
  9 35  1  0
  9 36  1  0
  9 37  1  0
 12 38  1  0
 13 39  1  0
 14 40  1  0
 17 41  1  0
 21 42  1  0
 21 43  1  0
M  END
>  <energy_abs>  (17) 
22.247859228435043

>  <SMILES>  (17) 
C[C@@H]1CCN(C[C@@H]1N(C)c2c3cc[nH]c3ncn2)C(=O)CC#N

>  <cluster_no>  (17) 
17

>  <fda_drugs_id>  (17) 
UJLAWZDWDVHWOW-YPMHNXCESA-N

>  <initial_conformation_id>  (17) 
276

>  <minimize_method>  (17) 
MMFF

$$$$

     RDKit          3D

 43 45  0  0  0  0  0  0  0  0999 V2000
    1.2818   -0.2293   -2.6317 C   0  0  0  0  0  0  0  0  0  0  0  0
    1.4522    0.7813   -1.4975 C   0  0  2  0  0  0  0  0  0  0  0  0
    2.5162    0.3237   -0.4890 C   0  0  0  0  0  0  0  0  0  0  0  0
    2.8201    1.4251    0.5289 C   0  0  0  0  0  0  0  0  0  0  0  0
    1.6307    2.1207    1.0212 N   0  0  0  0  0  0  0  0  0  0  0  0
    0.3399    1.4816    0.7373 C   0  0  0  0  0  0  0  0  0  0  0  0
    0.1462    1.2372   -0.7809 C   0  0  2  0  0  0  0  0  0  0  0  0
   -1.0558    0.4384   -1.1035 N   0  0  0  0  0  0  0  0  0  0  0  0
   -2.0474    1.0531   -1.9691 C   0  0  0  0  0  0  0  0  0  0  0  0
   -1.3090   -0.7805   -0.4892 C   0  0  0  0  0  0  0  0  0  0  0  0
   -2.5664   -1.4404   -0.4092 C   0  0  0  0  0  0  0  0  0  0  0  0
   -3.9216   -1.1890   -0.7962 C   0  0  0  0  0  0  0  0  0  0  0  0
   -4.6966   -2.2618   -0.4077 C   0  0  0  0  0  0  0  0  0  0  0  0
   -3.8713   -3.1591    0.2112 N   0  0  0  0  0  0  0  0  0  0  0  0
   -2.5921   -2.6769    0.2275 C   0  0  0  0  0  0  0  0  0  0  0  0
   -1.5656   -3.3314    0.7838 N   0  0  0  0  0  0  0  0  0  0  0  0
   -0.4335   -2.6303    0.6716 C   0  0  0  0  0  0  0  0  0  0  0  0
   -0.2580   -1.4292    0.0904 N   0  0  0  0  0  0  0  0  0  0  0  0
    1.6686    3.2259    1.8732 C   0  0  0  0  0  0  0  0  0  0  0  0
    0.6399    3.7370    2.3140 O   0  0  0  0  0  0  0  0  0  0  0  0
    3.0438    3.7741    2.2043 C   0  0  0  0  0  0  0  0  0  0  0  0
    2.9909    4.8831    3.1611 C   0  0  0  0  0  0  0  0  0  0  0  0
    3.0293    5.7650    3.9157 N   0  0  0  0  0  0  0  0  0  0  0  0
    2.2294   -0.3614   -3.1661 H   0  0  0  0  0  0  0  0  0  0  0  0
    0.5437    0.1179   -3.3617 H   0  0  0  0  0  0  0  0  0  0  0  0
    0.9787   -1.2145   -2.2681 H   0  0  0  0  0  0  0  0  0  0  0  0
    1.8645    1.6836   -1.9754 H   0  0  0  0  0  0  0  0  0  0  0  0
    2.1796   -0.5768    0.0356 H   0  0  0  0  0  0  0  0  0  0  0  0
    3.4446    0.0491   -1.0042 H   0  0  0  0  0  0  0  0  0  0  0  0
    3.4800    2.1710    0.0724 H   0  0  0  0  0  0  0  0  0  0  0  0
    3.3495    0.9995    1.3885 H   0  0  0  0  0  0  0  0  0  0  0  0
   -0.4927    2.0902    1.1078 H   0  0  0  0  0  0  0  0  0  0  0  0
    0.3263    0.5626    1.3297 H   0  0  0  0  0  0  0  0  0  0  0  0
   -0.0337    2.2463   -1.1827 H   0  0  0  0  0  0  0  0  0  0  0  0
   -2.4743    0.3282   -2.6703 H   0  0  0  0  0  0  0  0  0  0  0  0
   -1.6022    1.8370   -2.5926 H   0  0  0  0  0  0  0  0  0  0  0  0
   -2.8420    1.5194   -1.3782 H   0  0  0  0  0  0  0  0  0  0  0  0
   -4.3085   -0.3149   -1.2997 H   0  0  0  0  0  0  0  0  0  0  0  0
   -5.7557   -2.4566   -0.5124 H   0  0  0  0  0  0  0  0  0  0  0  0
   -4.1398   -4.0447    0.6151 H   0  0  0  0  0  0  0  0  0  0  0  0
    0.4545   -3.0829    1.1012 H   0  0  0  0  0  0  0  0  0  0  0  0
    3.6560    2.9710    2.6271 H   0  0  0  0  0  0  0  0  0  0  0  0
    3.5119    4.1224    1.2776 H   0  0  0  0  0  0  0  0  0  0  0  0
  1  2  1  0
  2  3  1  0
  3  4  1  0
  4  5  1  0
  5  6  1  0
  6  7  1  0
  7  8  1  0
  8  9  1  0
  8 10  1  0
 10 11  2  0
 11 12  1  0
 12 13  2  0
 13 14  1  0
 14 15  1  0
 15 16  2  0
 16 17  1  0
 17 18  2  0
  5 19  1  0
 19 20  2  0
 19 21  1  0
 21 22  1  0
 22 23  3  0
  7  2  1  0
 18 10  1  0
 15 11  1  0
  1 24  1  0
  1 25  1  0
  1 26  1  0
  2 27  1  6
  3 28  1  0
  3 29  1  0
  4 30  1  0
  4 31  1  0
  6 32  1  0
  6 33  1  0
  7 34  1  6
  9 35  1  0
  9 36  1  0
  9 37  1  0
 12 38  1  0
 13 39  1  0
 14 40  1  0
 17 41  1  0
 21 42  1  0
 21 43  1  0
M  END
>  <energy_abs>  (18) 
17.460850374536257

>  <SMILES>  (18) 
C[C@@H]1CCN(C[C@@H]1N(C)c2c3cc[nH]c3ncn2)C(=O)CC#N

>  <cluster_no>  (18) 
18

>  <fda_drugs_id>  (18) 
UJLAWZDWDVHWOW-YPMHNXCESA-N

>  <initial_conformation_id>  (18) 
271

>  <minimize_method>  (18) 
MMFF

$$$$

     RDKit          3D

 43 45  0  0  0  0  0  0  0  0999 V2000
    1.1127   -0.9382   -2.2349 C   0  0  0  0  0  0  0  0  0  0  0  0
    1.2285    0.5013   -1.7362 C   0  0  2  0  0  0  0  0  0  0  0  0
    2.6689    0.8358   -1.3329 C   0  0  0  0  0  0  0  0  0  0  0  0
    2.8075    2.2843   -0.8787 C   0  0  0  0  0  0  0  0  0  0  0  0
    1.8466    2.6383    0.1638 N   0  0  0  0  0  0  0  0  0  0  0  0
    0.4404    2.3340   -0.1390 C   0  0  0  0  0  0  0  0  0  0  0  0
    0.1858    0.8961   -0.6621 C   0  0  2  0  0  0  0  0  0  0  0  0
    0.0203   -0.0351    0.4768 N   0  0  0  0  0  0  0  0  0  0  0  0
    1.1603   -0.4333    1.2944 C   0  0  0  0  0  0  0  0  0  0  0  0
   -0.9396   -1.0461    0.3273 C   0  0  0  0  0  0  0  0  0  0  0  0
   -2.3075   -0.7987    0.0673 C   0  0  0  0  0  0  0  0  0  0  0  0
   -3.1504    0.3456   -0.0726 C   0  0  0  0  0  0  0  0  0  0  0  0
   -4.4339   -0.0954   -0.3182 C   0  0  0  0  0  0  0  0  0  0  0  0
   -4.4072   -1.4658   -0.3146 N   0  0  0  0  0  0  0  0  0  0  0  0
   -3.1354   -1.9039   -0.0662 C   0  0  0  0  0  0  0  0  0  0  0  0
   -2.7900   -3.1941    0.0330 N   0  0  0  0  0  0  0  0  0  0  0  0
   -1.4861   -3.3222    0.3200 C   0  0  0  0  0  0  0  0  0  0  0  0
   -0.5690   -2.3482    0.4756 N   0  0  0  0  0  0  0  0  0  0  0  0
    2.2575    3.5535    1.1323 C   0  0  0  0  0  0  0  0  0  0  0  0
    3.4153    3.9800    1.1738 O   0  0  0  0  0  0  0  0  0  0  0  0
    1.2625    4.0339    2.1652 C   0  0  0  0  0  0  0  0  0  0  0  0
    1.1036    3.0381    3.2227 C   0  0  0  0  0  0  0  0  0  0  0  0
    0.9515    2.2585    4.0693 N   0  0  0  0  0  0  0  0  0  0  0  0
    0.0848   -1.1677   -2.5336 H   0  0  0  0  0  0  0  0  0  0  0  0
    1.4276   -1.6626   -1.4792 H   0  0  0  0  0  0  0  0  0  0  0  0
    1.7506   -1.0887   -3.1130 H   0  0  0  0  0  0  0  0  0  0  0  0
    1.0084    1.1363   -2.6082 H   0  0  0  0  0  0  0  0  0  0  0  0
    3.3394    0.6681   -2.1850 H   0  0  0  0  0  0  0  0  0  0  0  0
    3.0161    0.1680   -0.5391 H   0  0  0  0  0  0  0  0  0  0  0  0
    3.8343    2.4492   -0.5356 H   0  0  0  0  0  0  0  0  0  0  0  0
    2.6363    2.9664   -1.7206 H   0  0  0  0  0  0  0  0  0  0  0  0
    0.1388    3.0568   -0.9080 H   0  0  0  0  0  0  0  0  0  0  0  0
   -0.1963    2.5150    0.7301 H   0  0  0  0  0  0  0  0  0  0  0  0
   -0.7708    0.9607   -1.1947 H   0  0  0  0  0  0  0  0  0  0  0  0
    0.8236   -0.8369    2.2574 H   0  0  0  0  0  0  0  0  0  0  0  0
    1.7961    0.4212    1.5358 H   0  0  0  0  0  0  0  0  0  0  0  0
    1.7788   -1.1913    0.8031 H   0  0  0  0  0  0  0  0  0  0  0  0
   -2.8485    1.3804    0.0112 H   0  0  0  0  0  0  0  0  0  0  0  0
   -5.3592    0.4417   -0.4791 H   0  0  0  0  0  0  0  0  0  0  0  0
   -5.1952   -2.0831   -0.4470 H   0  0  0  0  0  0  0  0  0  0  0  0
   -1.1215   -4.3376    0.4409 H   0  0  0  0  0  0  0  0  0  0  0  0
    0.3119    4.3024    1.6975 H   0  0  0  0  0  0  0  0  0  0  0  0
    1.6509    4.9662    2.5932 H   0  0  0  0  0  0  0  0  0  0  0  0
  1  2  1  0
  2  3  1  0
  3  4  1  0
  4  5  1  0
  5  6  1  0
  6  7  1  0
  7  8  1  0
  8  9  1  0
  8 10  1  0
 10 11  2  0
 11 12  1  0
 12 13  2  0
 13 14  1  0
 14 15  1  0
 15 16  2  0
 16 17  1  0
 17 18  2  0
  5 19  1  0
 19 20  2  0
 19 21  1  0
 21 22  1  0
 22 23  3  0
  7  2  1  0
 18 10  1  0
 15 11  1  0
  1 24  1  0
  1 25  1  0
  1 26  1  0
  2 27  1  6
  3 28  1  0
  3 29  1  0
  4 30  1  0
  4 31  1  0
  6 32  1  0
  6 33  1  0
  7 34  1  6
  9 35  1  0
  9 36  1  0
  9 37  1  0
 12 38  1  0
 13 39  1  0
 14 40  1  0
 17 41  1  0
 21 42  1  0
 21 43  1  0
M  END
>  <energy_abs>  (19) 
11.481971264952282

>  <SMILES>  (19) 
C[C@@H]1CCN(C[C@@H]1N(C)c2c3cc[nH]c3ncn2)C(=O)CC#N

>  <cluster_no>  (19) 
19

>  <fda_drugs_id>  (19) 
UJLAWZDWDVHWOW-YPMHNXCESA-N

>  <initial_conformation_id>  (19) 
266

>  <minimize_method>  (19) 
MMFF

$$$$

     RDKit          3D

 43 45  0  0  0  0  0  0  0  0999 V2000
    2.5026   -0.9872   -0.7845 C   0  0  0  0  0  0  0  0  0  0  0  0
    1.4779    0.0928   -1.1450 C   0  0  2  0  0  0  0  0  0  0  0  0
    2.1764    1.4008   -1.5520 C   0  0  0  0  0  0  0  0  0  0  0  0
    2.8258    2.1251   -0.3750 C   0  0  0  0  0  0  0  0  0  0  0  0
    1.9074    2.3216    0.7492 N   0  0  0  0  0  0  0  0  0  0  0  0
    1.1325    1.1403    1.1613 C   0  0  0  0  0  0  0  0  0  0  0  0
    0.4590    0.4110   -0.0238 C   0  0  2  0  0  0  0  0  0  0  0  0
   -0.3206   -0.7793    0.3730 N   0  0  0  0  0  0  0  0  0  0  0  0
    0.0858   -1.6147    1.4851 C   0  0  0  0  0  0  0  0  0  0  0  0
   -1.5196   -1.0176   -0.2970 C   0  0  0  0  0  0  0  0  0  0  0  0
   -2.5823   -1.8508    0.1458 C   0  0  0  0  0  0  0  0  0  0  0  0
   -2.8963   -2.6461    1.2936 C   0  0  0  0  0  0  0  0  0  0  0  0
   -4.1350   -3.2221    1.1032 C   0  0  0  0  0  0  0  0  0  0  0  0
   -4.5985   -2.8026   -0.1130 N   0  0  0  0  0  0  0  0  0  0  0  0
   -3.6837   -1.9695   -0.6952 C   0  0  0  0  0  0  0  0  0  0  0  0
   -3.8711   -1.3852   -1.8850 N   0  0  0  0  0  0  0  0  0  0  0  0
   -2.8305   -0.6102   -2.2083 C   0  0  0  0  0  0  0  0  0  0  0  0
   -1.7057   -0.3988   -1.5015 N   0  0  0  0  0  0  0  0  0  0  0  0
    2.1079    3.3080    1.7272 C   0  0  0  0  0  0  0  0  0  0  0  0
    1.5793    3.2279    2.8361 O   0  0  0  0  0  0  0  0  0  0  0  0
    2.9934    4.4777    1.3443 C   0  0  0  0  0  0  0  0  0  0  0  0
    3.0293    5.5168    2.3775 C   0  0  0  0  0  0  0  0  0  0  0  0
    3.1080    6.3802    3.1500 N   0  0  0  0  0  0  0  0  0  0  0  0
    3.0614   -0.7477    0.1245 H   0  0  0  0  0  0  0  0  0  0  0  0
    2.0143   -1.9557   -0.6378 H   0  0  0  0  0  0  0  0  0  0  0  0
    3.2273   -1.1142   -1.5963 H   0  0  0  0  0  0  0  0  0  0  0  0
    0.9350   -0.2744   -2.0254 H   0  0  0  0  0  0  0  0  0  0  0  0
    2.9293    1.2071   -2.3251 H   0  0  0  0  0  0  0  0  0  0  0  0
    1.4305    2.0676   -2.0047 H   0  0  0  0  0  0  0  0  0  0  0  0
    3.6866    1.5625    0.0044 H   0  0  0  0  0  0  0  0  0  0  0  0
    3.2075    3.0861   -0.7295 H   0  0  0  0  0  0  0  0  0  0  0  0
    0.3578    1.4378    1.8785 H   0  0  0  0  0  0  0  0  0  0  0  0
    1.8308    0.4943    1.7039 H   0  0  0  0  0  0  0  0  0  0  0  0
   -0.2340    1.1636   -0.4302 H   0  0  0  0  0  0  0  0  0  0  0  0
    1.1588   -1.5407    1.6834 H   0  0  0  0  0  0  0  0  0  0  0  0
   -0.4382   -1.3221    2.4006 H   0  0  0  0  0  0  0  0  0  0  0  0
   -0.0933   -2.6752    1.2779 H   0  0  0  0  0  0  0  0  0  0  0  0
   -2.2930   -2.7849    2.1791 H   0  0  0  0  0  0  0  0  0  0  0  0
   -4.7229   -3.8816    1.7277 H   0  0  0  0  0  0  0  0  0  0  0  0
   -5.4833   -3.0429   -0.5357 H   0  0  0  0  0  0  0  0  0  0  0  0
   -2.8990   -0.0874   -3.1569 H   0  0  0  0  0  0  0  0  0  0  0  0
    4.0099    4.1065    1.1758 H   0  0  0  0  0  0  0  0  0  0  0  0
    2.6148    4.9154    0.4144 H   0  0  0  0  0  0  0  0  0  0  0  0
  1  2  1  0
  2  3  1  0
  3  4  1  0
  4  5  1  0
  5  6  1  0
  6  7  1  0
  7  8  1  0
  8  9  1  0
  8 10  1  0
 10 11  2  0
 11 12  1  0
 12 13  2  0
 13 14  1  0
 14 15  1  0
 15 16  2  0
 16 17  1  0
 17 18  2  0
  5 19  1  0
 19 20  2  0
 19 21  1  0
 21 22  1  0
 22 23  3  0
  7  2  1  0
 18 10  1  0
 15 11  1  0
  1 24  1  0
  1 25  1  0
  1 26  1  0
  2 27  1  6
  3 28  1  0
  3 29  1  0
  4 30  1  0
  4 31  1  0
  6 32  1  0
  6 33  1  0
  7 34  1  6
  9 35  1  0
  9 36  1  0
  9 37  1  0
 12 38  1  0
 13 39  1  0
 14 40  1  0
 17 41  1  0
 21 42  1  0
 21 43  1  0
M  END
>  <energy_abs>  (20) 
13.173826904997195

>  <SMILES>  (20) 
C[C@@H]1CCN(C[C@@H]1N(C)c2c3cc[nH]c3ncn2)C(=O)CC#N

>  <cluster_no>  (20) 
20

>  <fda_drugs_id>  (20) 
UJLAWZDWDVHWOW-YPMHNXCESA-N

>  <initial_conformation_id>  (20) 
265

>  <minimize_method>  (20) 
MMFF

$$$$

     RDKit          3D

 43 45  0  0  0  0  0  0  0  0999 V2000
    2.3781    0.3995   -1.7768 C   0  0  0  0  0  0  0  0  0  0  0  0
    1.3227    1.5011   -1.9683 C   0  0  2  0  0  0  0  0  0  0  0  0
    1.9659    2.8912   -1.7480 C   0  0  0  0  0  0  0  0  0  0  0  0
    1.5492    3.5735   -0.4461 C   0  0  0  0  0  0  0  0  0  0  0  0
    1.4433    2.6119    0.6412 N   0  0  0  0  0  0  0  0  0  0  0  0
    0.5104    1.4978    0.4252 C   0  0  0  0  0  0  0  0  0  0  0  0
    0.0740    1.3095   -1.0594 C   0  0  2  0  0  0  0  0  0  0  0  0
   -0.5724   -0.0172   -1.2744 N   0  0  0  0  0  0  0  0  0  0  0  0
   -1.0280   -0.2775   -2.6482 C   0  0  0  0  0  0  0  0  0  0  0  0
   -1.6946   -0.2204   -0.4335 C   0  0  0  0  0  0  0  0  0  0  0  0
   -2.0083   -1.4912    0.0855 C   0  0  0  0  0  0  0  0  0  0  0  0
   -1.4488   -2.7991    0.0151 C   0  0  0  0  0  0  0  0  0  0  0  0
   -2.2446   -3.6376    0.7678 C   0  0  0  0  0  0  0  0  0  0  0  0
   -3.2632   -2.8838    1.2942 N   0  0  0  0  0  0  0  0  0  0  0  0
   -3.1304   -1.5824    0.8930 C   0  0  0  0  0  0  0  0  0  0  0  0
   -3.9594   -0.5877    1.2384 N   0  0  0  0  0  0  0  0  0  0  0  0
   -3.5713    0.5774    0.6955 C   0  0  0  0  0  0  0  0  0  0  0  0
   -2.5055    0.8163   -0.0966 N   0  0  0  0  0  0  0  0  0  0  0  0
    2.0833    2.8707    1.8473 C   0  0  0  0  0  0  0  0  0  0  0  0
    2.7822    3.8732    2.0154 O   0  0  0  0  0  0  0  0  0  0  0  0
    1.9151    1.8809    2.9800 C   0  0  0  0  0  0  0  0  0  0  0  0
    2.9316    0.8345    2.8898 C   0  0  0  0  0  0  0  0  0  0  0  0
    3.7128   -0.0223    2.8289 N   0  0  0  0  0  0  0  0  0  0  0  0
    3.1959    0.5285   -2.4947 H   0  0  0  0  0  0  0  0  0  0  0  0
    2.8147    0.4200   -0.7734 H   0  0  0  0  0  0  0  0  0  0  0  0
    1.9564   -0.5962   -1.9434 H   0  0  0  0  0  0  0  0  0  0  0  0
    1.0141    1.4609   -3.0202 H   0  0  0  0  0  0  0  0  0  0  0  0
    1.6951    3.5525   -2.5807 H   0  0  0  0  0  0  0  0  0  0  0  0
    3.0598    2.8092   -1.7768 H   0  0  0  0  0  0  0  0  0  0  0  0
    2.2569    4.3755   -0.2125 H   0  0  0  0  0  0  0  0  0  0  0  0
    0.5659    4.0463   -0.5581 H   0  0  0  0  0  0  0  0  0  0  0  0
   -0.3602    1.6988    1.0588 H   0  0  0  0  0  0  0  0  0  0  0  0
    0.9745    0.5797    0.8026 H   0  0  0  0  0  0  0  0  0  0  0  0
   -0.6386    2.1052   -1.3227 H   0  0  0  0  0  0  0  0  0  0  0  0
   -1.6813    0.5236   -3.0148 H   0  0  0  0  0  0  0  0  0  0  0  0
   -1.5645   -1.2310   -2.7308 H   0  0  0  0  0  0  0  0  0  0  0  0
   -0.1731   -0.3608   -3.3260 H   0  0  0  0  0  0  0  0  0  0  0  0
   -0.5565   -3.0842   -0.5276 H   0  0  0  0  0  0  0  0  0  0  0  0
   -2.1726   -4.6970    0.9759 H   0  0  0  0  0  0  0  0  0  0  0  0
   -4.0064   -3.2146    1.8924 H   0  0  0  0  0  0  0  0  0  0  0  0
   -4.1927    1.4383    0.9243 H   0  0  0  0  0  0  0  0  0  0  0  0
    2.0215    2.4307    3.9226 H   0  0  0  0  0  0  0  0  0  0  0  0
    0.9059    1.4614    2.9928 H   0  0  0  0  0  0  0  0  0  0  0  0
  1  2  1  0
  2  3  1  0
  3  4  1  0
  4  5  1  0
  5  6  1  0
  6  7  1  0
  7  8  1  0
  8  9  1  0
  8 10  1  0
 10 11  2  0
 11 12  1  0
 12 13  2  0
 13 14  1  0
 14 15  1  0
 15 16  2  0
 16 17  1  0
 17 18  2  0
  5 19  1  0
 19 20  2  0
 19 21  1  0
 21 22  1  0
 22 23  3  0
  7  2  1  0
 18 10  1  0
 15 11  1  0
  1 24  1  0
  1 25  1  0
  1 26  1  0
  2 27  1  6
  3 28  1  0
  3 29  1  0
  4 30  1  0
  4 31  1  0
  6 32  1  0
  6 33  1  0
  7 34  1  6
  9 35  1  0
  9 36  1  0
  9 37  1  0
 12 38  1  0
 13 39  1  0
 14 40  1  0
 17 41  1  0
 21 42  1  0
 21 43  1  0
M  END
>  <energy_abs>  (21) 
12.664406365475145

>  <SMILES>  (21) 
C[C@@H]1CCN(C[C@@H]1N(C)c2c3cc[nH]c3ncn2)C(=O)CC#N

>  <cluster_no>  (21) 
21

>  <fda_drugs_id>  (21) 
UJLAWZDWDVHWOW-YPMHNXCESA-N

>  <initial_conformation_id>  (21) 
261

>  <minimize_method>  (21) 
MMFF

$$$$

     RDKit          3D

 43 45  0  0  0  0  0  0  0  0999 V2000
   -0.5243    3.9478   -0.0637 C   0  0  0  0  0  0  0  0  0  0  0  0
   -0.6874    2.8442    0.9849 C   0  0  2  0  0  0  0  0  0  0  0  0
    0.1667    3.1435    2.2281 C   0  0  0  0  0  0  0  0  0  0  0  0
    1.6621    2.9646    1.9781 C   0  0  0  0  0  0  0  0  0  0  0  0
    1.9896    1.6597    1.3993 N   0  0  0  0  0  0  0  0  0  0  0  0
    1.1650    1.2308    0.2568 C   0  0  0  0  0  0  0  0  0  0  0  0
   -0.3499    1.4120    0.4930 C   0  0  2  0  0  0  0  0  0  0  0  0
   -1.2198    1.0400   -0.6530 N   0  0  0  0  0  0  0  0  0  0  0  0
   -0.6879    1.2017   -2.0098 C   0  0  0  0  0  0  0  0  0  0  0  0
   -1.7436   -0.2690   -0.5383 C   0  0  0  0  0  0  0  0  0  0  0  0
   -3.0041   -0.6219   -1.0617 C   0  0  0  0  0  0  0  0  0  0  0  0
   -4.0640    0.0463   -1.7412 C   0  0  0  0  0  0  0  0  0  0  0  0
   -5.0573   -0.8787   -1.9877 C   0  0  0  0  0  0  0  0  0  0  0  0
   -4.6407   -2.0816   -1.4760 N   0  0  0  0  0  0  0  0  0  0  0  0
   -3.4038   -1.9401   -0.9085 C   0  0  0  0  0  0  0  0  0  0  0  0
   -2.7222   -2.9284   -0.3134 N   0  0  0  0  0  0  0  0  0  0  0  0
   -1.5434   -2.4878    0.1555 C   0  0  0  0  0  0  0  0  0  0  0  0
   -1.0287   -1.2439    0.0820 N   0  0  0  0  0  0  0  0  0  0  0  0
    3.2744    1.0991    1.4837 C   0  0  0  0  0  0  0  0  0  0  0  0
    3.6535    0.2372    0.6909 O   0  0  0  0  0  0  0  0  0  0  0  0
    4.1634    1.6004    2.6049 C   0  0  0  0  0  0  0  0  0  0  0  0
    5.4160    0.8462    2.7090 C   0  0  0  0  0  0  0  0  0  0  0  0
    6.4286    0.2963    2.8532 N   0  0  0  0  0  0  0  0  0  0  0  0
    0.4718    3.9513   -0.5151 H   0  0  0  0  0  0  0  0  0  0  0  0
   -1.2628    3.8379   -0.8638 H   0  0  0  0  0  0  0  0  0  0  0  0
   -0.6895    4.9332    0.3860 H   0  0  0  0  0  0  0  0  0  0  0  0
   -1.7413    2.8592    1.2954 H   0  0  0  0  0  0  0  0  0  0  0  0
   -0.0271    4.1602    2.5897 H   0  0  0  0  0  0  0  0  0  0  0  0
   -0.1381    2.4637    3.0349 H   0  0  0  0  0  0  0  0  0  0  0  0
    2.1888    3.1062    2.9253 H   0  0  0  0  0  0  0  0  0  0  0  0
    2.0389    3.7289    1.2887 H   0  0  0  0  0  0  0  0  0  0  0  0
    1.5121    1.8112   -0.6058 H   0  0  0  0  0  0  0  0  0  0  0  0
    1.3735    0.1786    0.0317 H   0  0  0  0  0  0  0  0  0  0  0  0
   -0.6049    0.7778    1.3566 H   0  0  0  0  0  0  0  0  0  0  0  0
   -1.4823    1.1245   -2.7608 H   0  0  0  0  0  0  0  0  0  0  0  0
   -0.2391    2.1899   -2.1429 H   0  0  0  0  0  0  0  0  0  0  0  0
    0.0796    0.4528   -2.2414 H   0  0  0  0  0  0  0  0  0  0  0  0
   -4.0887    1.0939   -2.0116 H   0  0  0  0  0  0  0  0  0  0  0  0
   -6.0191   -0.7854   -2.4741 H   0  0  0  0  0  0  0  0  0  0  0  0
   -5.1518   -2.9521   -1.4957 H   0  0  0  0  0  0  0  0  0  0  0  0
   -0.9242   -3.2257    0.6569 H   0  0  0  0  0  0  0  0  0  0  0  0
    3.6189    1.5134    3.5514 H   0  0  0  0  0  0  0  0  0  0  0  0
    4.3950    2.6551    2.4224 H   0  0  0  0  0  0  0  0  0  0  0  0
  1  2  1  0
  2  3  1  0
  3  4  1  0
  4  5  1  0
  5  6  1  0
  6  7  1  0
  7  8  1  0
  8  9  1  0
  8 10  1  0
 10 11  2  0
 11 12  1  0
 12 13  2  0
 13 14  1  0
 14 15  1  0
 15 16  2  0
 16 17  1  0
 17 18  2  0
  5 19  1  0
 19 20  2  0
 19 21  1  0
 21 22  1  0
 22 23  3  0
  7  2  1  0
 18 10  1  0
 15 11  1  0
  1 24  1  0
  1 25  1  0
  1 26  1  0
  2 27  1  1
  3 28  1  0
  3 29  1  0
  4 30  1  0
  4 31  1  0
  6 32  1  0
  6 33  1  0
  7 34  1  1
  9 35  1  0
  9 36  1  0
  9 37  1  0
 12 38  1  0
 13 39  1  0
 14 40  1  0
 17 41  1  0
 21 42  1  0
 21 43  1  0
M  END
>  <energy_abs>  (22) 
12.380643158479117

>  <SMILES>  (22) 
C[C@@H]1CCN(C[C@@H]1N(C)c2c3cc[nH]c3ncn2)C(=O)CC#N

>  <cluster_no>  (22) 
22

>  <fda_drugs_id>  (22) 
UJLAWZDWDVHWOW-YPMHNXCESA-N

>  <initial_conformation_id>  (22) 
243

>  <minimize_method>  (22) 
MMFF

$$$$

     RDKit          3D

 43 45  0  0  0  0  0  0  0  0999 V2000
   -1.3294    3.3995    0.0046 C   0  0  0  0  0  0  0  0  0  0  0  0
   -0.7899    2.4876    1.1095 C   0  0  2  0  0  0  0  0  0  0  0  0
    0.1471    3.3112    2.0212 C   0  0  0  0  0  0  0  0  0  0  0  0
    1.1378    2.4420    2.7876 C   0  0  0  0  0  0  0  0  0  0  0  0
    2.0042    1.6891    1.8790 N   0  0  0  0  0  0  0  0  0  0  0  0
    1.4285    1.3096    0.5796 C   0  0  0  0  0  0  0  0  0  0  0  0
   -0.1114    1.1717    0.6338 C   0  0  2  0  0  0  0  0  0  0  0  0
   -0.6763    0.5976   -0.6040 N   0  0  0  0  0  0  0  0  0  0  0  0
   -0.2540    1.0668   -1.9112 C   0  0  0  0  0  0  0  0  0  0  0  0
   -1.8369   -0.1717   -0.4892 C   0  0  0  0  0  0  0  0  0  0  0  0
   -2.4572   -0.9149   -1.5297 C   0  0  0  0  0  0  0  0  0  0  0  0
   -2.2179   -1.2049   -2.9104 C   0  0  0  0  0  0  0  0  0  0  0  0
   -3.2292   -2.0236   -3.3682 C   0  0  0  0  0  0  0  0  0  0  0  0
   -4.0755   -2.2548   -2.3189 N   0  0  0  0  0  0  0  0  0  0  0  0
   -3.6200   -1.6053   -1.2053 C   0  0  0  0  0  0  0  0  0  0  0  0
   -4.2323   -1.6621   -0.0163 N   0  0  0  0  0  0  0  0  0  0  0  0
   -3.5677   -0.9519    0.9010 C   0  0  0  0  0  0  0  0  0  0  0  0
   -2.4390   -0.2387    0.7351 N   0  0  0  0  0  0  0  0  0  0  0  0
    3.2757    1.3265    2.3225 C   0  0  0  0  0  0  0  0  0  0  0  0
    3.6474    1.5770    3.4691 O   0  0  0  0  0  0  0  0  0  0  0  0
    4.1642    0.5992    1.3328 C   0  0  0  0  0  0  0  0  0  0  0  0
    5.5706    0.5979    1.7447 C   0  0  0  0  0  0  0  0  0  0  0  0
    6.7034    0.5704    1.9988 N   0  0  0  0  0  0  0  0  0  0  0  0
   -0.5332    3.7252   -0.6720 H   0  0  0  0  0  0  0  0  0  0  0  0
   -2.1074    2.9026   -0.5825 H   0  0  0  0  0  0  0  0  0  0  0  0
   -1.7828    4.2982    0.4381 H   0  0  0  0  0  0  0  0  0  0  0  0
   -1.6576    2.1957    1.7172 H   0  0  0  0  0  0  0  0  0  0  0  0
   -0.4548    3.8968    2.7264 H   0  0  0  0  0  0  0  0  0  0  0  0
    0.7139    4.0338    1.4189 H   0  0  0  0  0  0  0  0  0  0  0  0
    1.7469    3.0709    3.4462 H   0  0  0  0  0  0  0  0  0  0  0  0
    0.6113    1.7170    3.4194 H   0  0  0  0  0  0  0  0  0  0  0  0
    1.7358    2.0881   -0.1271 H   0  0  0  0  0  0  0  0  0  0  0  0
    1.8679    0.3661    0.2411 H   0  0  0  0  0  0  0  0  0  0  0  0
   -0.2624    0.4390    1.4418 H   0  0  0  0  0  0  0  0  0  0  0  0
   -1.1004    1.4223   -2.5092 H   0  0  0  0  0  0  0  0  0  0  0  0
    0.4417    1.9079   -1.8465 H   0  0  0  0  0  0  0  0  0  0  0  0
    0.2701    0.2706   -2.4489 H   0  0  0  0  0  0  0  0  0  0  0  0
   -1.3932   -0.8634   -3.5187 H   0  0  0  0  0  0  0  0  0  0  0  0
   -3.4132   -2.4618   -4.3403 H   0  0  0  0  0  0  0  0  0  0  0  0
   -4.9094   -2.8241   -2.3318 H   0  0  0  0  0  0  0  0  0  0  0  0
   -3.9880   -0.9484    1.9018 H   0  0  0  0  0  0  0  0  0  0  0  0
    4.0906    1.0838    0.3535 H   0  0  0  0  0  0  0  0  0  0  0  0
    3.8049   -0.4314    1.2431 H   0  0  0  0  0  0  0  0  0  0  0  0
  1  2  1  0
  2  3  1  0
  3  4  1  0
  4  5  1  0
  5  6  1  0
  6  7  1  0
  7  8  1  0
  8  9  1  0
  8 10  1  0
 10 11  2  0
 11 12  1  0
 12 13  2  0
 13 14  1  0
 14 15  1  0
 15 16  2  0
 16 17  1  0
 17 18  2  0
  5 19  1  0
 19 20  2  0
 19 21  1  0
 21 22  1  0
 22 23  3  0
  7  2  1  0
 18 10  1  0
 15 11  1  0
  1 24  1  0
  1 25  1  0
  1 26  1  0
  2 27  1  1
  3 28  1  0
  3 29  1  0
  4 30  1  0
  4 31  1  0
  6 32  1  0
  6 33  1  0
  7 34  1  1
  9 35  1  0
  9 36  1  0
  9 37  1  0
 12 38  1  0
 13 39  1  0
 14 40  1  0
 17 41  1  0
 21 42  1  0
 21 43  1  0
M  END
>  <energy_abs>  (23) 
16.90501245144419

>  <SMILES>  (23) 
C[C@@H]1CCN(C[C@@H]1N(C)c2c3cc[nH]c3ncn2)C(=O)CC#N

>  <cluster_no>  (23) 
23

>  <fda_drugs_id>  (23) 
UJLAWZDWDVHWOW-YPMHNXCESA-N

>  <initial_conformation_id>  (23) 
237

>  <minimize_method>  (23) 
MMFF

$$$$

     RDKit          3D

 43 45  0  0  0  0  0  0  0  0999 V2000
   -1.3584    3.1482    1.0991 C   0  0  0  0  0  0  0  0  0  0  0  0
   -0.6223    1.8119    1.2403 C   0  0  2  0  0  0  0  0  0  0  0  0
    0.3996    1.8911    2.4009 C   0  0  0  0  0  0  0  0  0  0  0  0
    1.6385    2.7138    2.0395 C   0  0  0  0  0  0  0  0  0  0  0  0
    2.2559    2.1763    0.8270 N   0  0  0  0  0  0  0  0  0  0  0  0
    1.3607    2.1654   -0.3374 C   0  0  0  0  0  0  0  0  0  0  0  0
    0.0960    1.3149   -0.0548 C   0  0  2  0  0  0  0  0  0  0  0  0
   -0.7803    1.1666   -1.2411 N   0  0  0  0  0  0  0  0  0  0  0  0
   -1.0291    2.3046   -2.1201 C   0  0  0  0  0  0  0  0  0  0  0  0
   -1.8998    0.3378   -1.0681 C   0  0  0  0  0  0  0  0  0  0  0  0
   -1.8238   -1.0241   -0.6953 C   0  0  0  0  0  0  0  0  0  0  0  0
   -0.7944   -1.9820   -0.4482 C   0  0  0  0  0  0  0  0  0  0  0  0
   -1.3935   -3.1796   -0.1172 C   0  0  0  0  0  0  0  0  0  0  0  0
   -2.7493   -2.9916   -0.1708 N   0  0  0  0  0  0  0  0  0  0  0  0
   -3.0242   -1.7022   -0.5359 C   0  0  0  0  0  0  0  0  0  0  0  0
   -4.2608   -1.2162   -0.7066 N   0  0  0  0  0  0  0  0  0  0  0  0
   -4.2244    0.0671   -1.0932 C   0  0  0  0  0  0  0  0  0  0  0  0
   -3.1444    0.8490   -1.2847 N   0  0  0  0  0  0  0  0  0  0  0  0
    3.3700    1.3406    0.8067 C   0  0  0  0  0  0  0  0  0  0  0  0
    3.6407    0.6403   -0.1720 O   0  0  0  0  0  0  0  0  0  0  0  0
    4.2918    1.3261    2.0049 C   0  0  0  0  0  0  0  0  0  0  0  0
    3.8333    0.3507    2.9906 C   0  0  0  0  0  0  0  0  0  0  0  0
    3.4603   -0.3904    3.8025 N   0  0  0  0  0  0  0  0  0  0  0  0
   -2.2487    3.0403    0.4739 H   0  0  0  0  0  0  0  0  0  0  0  0
   -0.7277    3.9302    0.6678 H   0  0  0  0  0  0  0  0  0  0  0  0
   -1.7076    3.5029    2.0753 H   0  0  0  0  0  0  0  0  0  0  0  0
   -1.3750    1.0693    1.5357 H   0  0  0  0  0  0  0  0  0  0  0  0
    0.7106    0.8700    2.6565 H   0  0  0  0  0  0  0  0  0  0  0  0
   -0.0721    2.3081    3.2983 H   0  0  0  0  0  0  0  0  0  0  0  0
    1.3717    3.7581    1.8427 H   0  0  0  0  0  0  0  0  0  0  0  0
    2.3323    2.7150    2.8815 H   0  0  0  0  0  0  0  0  0  0  0  0
    1.8816    1.7828   -1.2221 H   0  0  0  0  0  0  0  0  0  0  0  0
    1.1038    3.2094   -0.5491 H   0  0  0  0  0  0  0  0  0  0  0  0
    0.4873    0.3189    0.1852 H   0  0  0  0  0  0  0  0  0  0  0  0
   -1.5307    1.9867   -3.0430 H   0  0  0  0  0  0  0  0  0  0  0  0
   -0.0885    2.7611   -2.4433 H   0  0  0  0  0  0  0  0  0  0  0  0
   -1.6367    3.0805   -1.6474 H   0  0  0  0  0  0  0  0  0  0  0  0
    0.2728   -1.8161   -0.5182 H   0  0  0  0  0  0  0  0  0  0  0  0
   -0.9736   -4.1435    0.1380 H   0  0  0  0  0  0  0  0  0  0  0  0
   -3.4592   -3.6871    0.0062 H   0  0  0  0  0  0  0  0  0  0  0  0
   -5.1859    0.5378   -1.2732 H   0  0  0  0  0  0  0  0  0  0  0  0
    4.3836    2.3299    2.4296 H   0  0  0  0  0  0  0  0  0  0  0  0
    5.2953    1.0601    1.6520 H   0  0  0  0  0  0  0  0  0  0  0  0
  1  2  1  0
  2  3  1  0
  3  4  1  0
  4  5  1  0
  5  6  1  0
  6  7  1  0
  7  8  1  0
  8  9  1  0
  8 10  1  0
 10 11  2  0
 11 12  1  0
 12 13  2  0
 13 14  1  0
 14 15  1  0
 15 16  2  0
 16 17  1  0
 17 18  2  0
  5 19  1  0
 19 20  2  0
 19 21  1  0
 21 22  1  0
 22 23  3  0
  7  2  1  0
 18 10  1  0
 15 11  1  0
  1 24  1  0
  1 25  1  0
  1 26  1  0
  2 27  1  1
  3 28  1  0
  3 29  1  0
  4 30  1  0
  4 31  1  0
  6 32  1  0
  6 33  1  0
  7 34  1  1
  9 35  1  0
  9 36  1  0
  9 37  1  0
 12 38  1  0
 13 39  1  0
 14 40  1  0
 17 41  1  0
 21 42  1  0
 21 43  1  0
M  END
>  <energy_abs>  (24) 
13.116451246996977

>  <SMILES>  (24) 
C[C@@H]1CCN(C[C@@H]1N(C)c2c3cc[nH]c3ncn2)C(=O)CC#N

>  <cluster_no>  (24) 
24

>  <fda_drugs_id>  (24) 
UJLAWZDWDVHWOW-YPMHNXCESA-N

>  <initial_conformation_id>  (24) 
234

>  <minimize_method>  (24) 
MMFF

$$$$

     RDKit          3D

 43 45  0  0  0  0  0  0  0  0999 V2000
   -0.1369    2.4972   -1.6631 C   0  0  0  0  0  0  0  0  0  0  0  0
   -0.5961    2.0348   -0.2781 C   0  0  2  0  0  0  0  0  0  0  0  0
   -0.4072    3.1600    0.7570 C   0  0  0  0  0  0  0  0  0  0  0  0
    1.0582    3.4168    1.0974 C   0  0  0  0  0  0  0  0  0  0  0  0
    1.7643    2.1990    1.5001 N   0  0  0  0  0  0  0  0  0  0  0  0
    1.5876    1.0407    0.6098 C   0  0  0  0  0  0  0  0  0  0  0  0
    0.1057    0.7602    0.2609 C   0  0  2  0  0  0  0  0  0  0  0  0
   -0.0645   -0.4617   -0.5633 N   0  0  0  0  0  0  0  0  0  0  0  0
    0.8446   -0.7228   -1.6782 C   0  0  0  0  0  0  0  0  0  0  0  0
   -1.3971   -0.8059   -0.8505 C   0  0  0  0  0  0  0  0  0  0  0  0
   -2.3610   -1.1118    0.1376 C   0  0  0  0  0  0  0  0  0  0  0  0
   -2.3920   -1.2437    1.5587 C   0  0  0  0  0  0  0  0  0  0  0  0
   -3.6779   -1.5767    1.9304 C   0  0  0  0  0  0  0  0  0  0  0  0
   -4.4275   -1.6684    0.7869 N   0  0  0  0  0  0  0  0  0  0  0  0
   -3.6433   -1.4070   -0.3029 C   0  0  0  0  0  0  0  0  0  0  0  0
   -4.0783   -1.4461   -1.5691 N   0  0  0  0  0  0  0  0  0  0  0  0
   -3.0854   -1.1755   -2.4285 C   0  0  0  0  0  0  0  0  0  0  0  0
   -1.8031   -0.8721   -2.1489 N   0  0  0  0  0  0  0  0  0  0  0  0
    2.8977    2.3741    2.3007 C   0  0  0  0  0  0  0  0  0  0  0  0
    3.2095    3.4783    2.7551 O   0  0  0  0  0  0  0  0  0  0  0  0
    3.7384    1.1665    2.6527 C   0  0  0  0  0  0  0  0  0  0  0  0
    4.6885    0.8748    1.5820 C   0  0  0  0  0  0  0  0  0  0  0  0
    5.4180    0.6078    0.7194 N   0  0  0  0  0  0  0  0  0  0  0  0
   -0.5545    3.4823   -1.8994 H   0  0  0  0  0  0  0  0  0  0  0  0
    0.9511    2.5702   -1.7425 H   0  0  0  0  0  0  0  0  0  0  0  0
   -0.4930    1.8152   -2.4399 H   0  0  0  0  0  0  0  0  0  0  0  0
   -1.6759    1.8511   -0.3482 H   0  0  0  0  0  0  0  0  0  0  0  0
   -0.8703    4.0881    0.4016 H   0  0  0  0  0  0  0  0  0  0  0  0
   -0.9382    2.8810    1.6769 H   0  0  0  0  0  0  0  0  0  0  0  0
    1.1067    4.1607    1.9006 H   0  0  0  0  0  0  0  0  0  0  0  0
    1.5928    3.8381    0.2379 H   0  0  0  0  0  0  0  0  0  0  0  0
    2.0109    0.1428    1.0671 H   0  0  0  0  0  0  0  0  0  0  0  0
    2.1808    1.2500   -0.2876 H   0  0  0  0  0  0  0  0  0  0  0  0
   -0.3595    0.5513    1.2327 H   0  0  0  0  0  0  0  0  0  0  0  0
    1.8856   -0.7092   -1.3409 H   0  0  0  0  0  0  0  0  0  0  0  0
    0.6861   -1.7282   -2.0886 H   0  0  0  0  0  0  0  0  0  0  0  0
    0.7410    0.0023   -2.4894 H   0  0  0  0  0  0  0  0  0  0  0  0
   -1.5580   -1.1211    2.2361 H   0  0  0  0  0  0  0  0  0  0  0  0
   -4.1177   -1.7668    2.9005 H   0  0  0  0  0  0  0  0  0  0  0  0
   -5.4059   -1.9107    0.7272 H   0  0  0  0  0  0  0  0  0  0  0  0
   -3.3459   -1.2019   -3.4821 H   0  0  0  0  0  0  0  0  0  0  0  0
    3.0974    0.3106    2.8827 H   0  0  0  0  0  0  0  0  0  0  0  0
    4.2783    1.3918    3.5801 H   0  0  0  0  0  0  0  0  0  0  0  0
  1  2  1  0
  2  3  1  0
  3  4  1  0
  4  5  1  0
  5  6  1  0
  6  7  1  0
  7  8  1  0
  8  9  1  0
  8 10  1  0
 10 11  2  0
 11 12  1  0
 12 13  2  0
 13 14  1  0
 14 15  1  0
 15 16  2  0
 16 17  1  0
 17 18  2  0
  5 19  1  0
 19 20  2  0
 19 21  1  0
 21 22  1  0
 22 23  3  0
  7  2  1  0
 18 10  1  0
 15 11  1  0
  1 24  1  0
  1 25  1  0
  1 26  1  0
  2 27  1  6
  3 28  1  0
  3 29  1  0
  4 30  1  0
  4 31  1  0
  6 32  1  0
  6 33  1  0
  7 34  1  1
  9 35  1  0
  9 36  1  0
  9 37  1  0
 12 38  1  0
 13 39  1  0
 14 40  1  0
 17 41  1  0
 21 42  1  0
 21 43  1  0
M  END
>  <energy_abs>  (25) 
12.34367323921343

>  <SMILES>  (25) 
C[C@@H]1CCN(C[C@@H]1N(C)c2c3cc[nH]c3ncn2)C(=O)CC#N

>  <cluster_no>  (25) 
25

>  <fda_drugs_id>  (25) 
UJLAWZDWDVHWOW-YPMHNXCESA-N

>  <initial_conformation_id>  (25) 
225

>  <minimize_method>  (25) 
MMFF

$$$$

     RDKit          3D

 43 45  0  0  0  0  0  0  0  0999 V2000
   -2.4983    1.5413    3.2778 C   0  0  0  0  0  0  0  0  0  0  0  0
   -0.9797    1.6936    3.1849 C   0  0  2  0  0  0  0  0  0  0  0  0
   -0.6082    2.9515    2.3824 C   0  0  0  0  0  0  0  0  0  0  0  0
    0.9002    3.0911    2.2083 C   0  0  0  0  0  0  0  0  0  0  0  0
    1.4725    1.8975    1.5991 N   0  0  0  0  0  0  0  0  0  0  0  0
    1.2467    0.6551    2.3411 C   0  0  0  0  0  0  0  0  0  0  0  0
   -0.2306    0.4059    2.7482 C   0  0  2  0  0  0  0  0  0  0  0  0
   -0.9637   -0.4959    1.8232 N   0  0  0  0  0  0  0  0  0  0  0  0
   -1.6650   -1.6263    2.4177 C   0  0  0  0  0  0  0  0  0  0  0  0
   -1.1042   -0.2565    0.4640 C   0  0  0  0  0  0  0  0  0  0  0  0
   -1.5136   -1.2030   -0.5168 C   0  0  0  0  0  0  0  0  0  0  0  0
   -1.8585   -2.5912   -0.5704 C   0  0  0  0  0  0  0  0  0  0  0  0
   -2.1630   -2.9186   -1.8753 C   0  0  0  0  0  0  0  0  0  0  0  0
   -2.0108   -1.7867   -2.6275 N   0  0  0  0  0  0  0  0  0  0  0  0
   -1.6107   -0.7519   -1.8289 C   0  0  0  0  0  0  0  0  0  0  0  0
   -1.3619    0.4792   -2.2895 N   0  0  0  0  0  0  0  0  0  0  0  0
   -0.9684    1.2906   -1.3052 C   0  0  0  0  0  0  0  0  0  0  0  0
   -0.8164    0.9852   -0.0019 N   0  0  0  0  0  0  0  0  0  0  0  0
    2.0664    1.9915    0.3408 C   0  0  0  0  0  0  0  0  0  0  0  0
    2.1383    3.0667   -0.2577 O   0  0  0  0  0  0  0  0  0  0  0  0
    2.6355    0.7155   -0.2493 C   0  0  0  0  0  0  0  0  0  0  0  0
    3.2947    0.9399   -1.5393 C   0  0  0  0  0  0  0  0  0  0  0  0
    3.8412    1.0439   -2.5592 N   0  0  0  0  0  0  0  0  0  0  0  0
   -2.9516    1.3805    2.2947 H   0  0  0  0  0  0  0  0  0  0  0  0
   -2.9491    2.4443    3.7041 H   0  0  0  0  0  0  0  0  0  0  0  0
   -2.7695    0.7037    3.9277 H   0  0  0  0  0  0  0  0  0  0  0  0
   -0.6328    1.8978    4.2097 H   0  0  0  0  0  0  0  0  0  0  0  0
   -1.1016    2.9503    1.4065 H   0  0  0  0  0  0  0  0  0  0  0  0
   -0.9851    3.8395    2.9057 H   0  0  0  0  0  0  0  0  0  0  0  0
    1.3837    3.2241    3.1837 H   0  0  0  0  0  0  0  0  0  0  0  0
    1.1188    3.9870    1.6191 H   0  0  0  0  0  0  0  0  0  0  0  0
    1.8437    0.7593    3.2569 H   0  0  0  0  0  0  0  0  0  0  0  0
    1.6447   -0.2167    1.8173 H   0  0  0  0  0  0  0  0  0  0  0  0
   -0.1290   -0.1785    3.6753 H   0  0  0  0  0  0  0  0  0  0  0  0
   -1.7753   -1.5122    3.5021 H   0  0  0  0  0  0  0  0  0  0  0  0
   -2.6824   -1.7276    2.0240 H   0  0  0  0  0  0  0  0  0  0  0  0
   -1.1040   -2.5516    2.2547 H   0  0  0  0  0  0  0  0  0  0  0  0
   -1.8798   -3.2944    0.2493 H   0  0  0  0  0  0  0  0  0  0  0  0
   -2.4666   -3.8529   -2.3290 H   0  0  0  0  0  0  0  0  0  0  0  0
   -2.1516   -1.7007   -3.6240 H   0  0  0  0  0  0  0  0  0  0  0  0
   -0.7314    2.3133   -1.5846 H   0  0  0  0  0  0  0  0  0  0  0  0
    1.8297   -0.0109   -0.3872 H   0  0  0  0  0  0  0  0  0  0  0  0
    3.3671    0.3030    0.4540 H   0  0  0  0  0  0  0  0  0  0  0  0
  1  2  1  0
  2  3  1  0
  3  4  1  0
  4  5  1  0
  5  6  1  0
  6  7  1  0
  7  8  1  0
  8  9  1  0
  8 10  1  0
 10 11  2  0
 11 12  1  0
 12 13  2  0
 13 14  1  0
 14 15  1  0
 15 16  2  0
 16 17  1  0
 17 18  2  0
  5 19  1  0
 19 20  2  0
 19 21  1  0
 21 22  1  0
 22 23  3  0
  7  2  1  0
 18 10  1  0
 15 11  1  0
  1 24  1  0
  1 25  1  0
  1 26  1  0
  2 27  1  1
  3 28  1  0
  3 29  1  0
  4 30  1  0
  4 31  1  0
  6 32  1  0
  6 33  1  0
  7 34  1  1
  9 35  1  0
  9 36  1  0
  9 37  1  0
 12 38  1  0
 13 39  1  0
 14 40  1  0
 17 41  1  0
 21 42  1  0
 21 43  1  0
M  END
>  <energy_abs>  (26) 
14.046861334395656

>  <SMILES>  (26) 
C[C@@H]1CCN(C[C@@H]1N(C)c2c3cc[nH]c3ncn2)C(=O)CC#N

>  <cluster_no>  (26) 
26

>  <fda_drugs_id>  (26) 
UJLAWZDWDVHWOW-YPMHNXCESA-N

>  <initial_conformation_id>  (26) 
216

>  <minimize_method>  (26) 
MMFF

$$$$

     RDKit          3D

 43 45  0  0  0  0  0  0  0  0999 V2000
   -1.3740    2.6310   -0.5706 C   0  0  0  0  0  0  0  0  0  0  0  0
   -0.8634    2.0025    0.7335 C   0  0  2  0  0  0  0  0  0  0  0  0
   -0.2911    3.0687    1.6774 C   0  0  0  0  0  0  0  0  0  0  0  0
    1.0053    3.6787    1.1615 C   0  0  0  0  0  0  0  0  0  0  0  0
    2.0029    2.6712    0.8051 N   0  0  0  0  0  0  0  0  0  0  0  0
    1.5242    1.5322    0.0050 C   0  0  0  0  0  0  0  0  0  0  0  0
    0.2052    0.8909    0.5197 C   0  0  2  0  0  0  0  0  0  0  0  0
   -0.2887   -0.1705   -0.4096 N   0  0  0  0  0  0  0  0  0  0  0  0
    0.6863   -1.2175   -0.7504 C   0  0  0  0  0  0  0  0  0  0  0  0
   -1.4208   -0.8512    0.1148 C   0  0  0  0  0  0  0  0  0  0  0  0
   -2.4659   -1.2965   -0.7179 C   0  0  0  0  0  0  0  0  0  0  0  0
   -2.7685   -1.2446   -2.1089 C   0  0  0  0  0  0  0  0  0  0  0  0
   -3.9793   -1.8775   -2.3000 C   0  0  0  0  0  0  0  0  0  0  0  0
   -4.4220   -2.3073   -1.0742 N   0  0  0  0  0  0  0  0  0  0  0  0
   -3.5172   -1.9612   -0.1079 C   0  0  0  0  0  0  0  0  0  0  0  0
   -3.6533   -2.2330    1.1972 N   0  0  0  0  0  0  0  0  0  0  0  0
   -2.6074   -1.7669    1.8998 C   0  0  0  0  0  0  0  0  0  0  0  0
   -1.5227   -1.1074    1.4448 N   0  0  0  0  0  0  0  0  0  0  0  0
    3.3391    3.0803    0.8378 C   0  0  0  0  0  0  0  0  0  0  0  0
    3.6726    4.1813    1.2853 O   0  0  0  0  0  0  0  0  0  0  0  0
    4.4068    2.1520    0.3026 C   0  0  0  0  0  0  0  0  0  0  0  0
    4.6812    1.0757    1.2521 C   0  0  0  0  0  0  0  0  0  0  0  0
    4.8928    0.1875    1.9689 N   0  0  0  0  0  0  0  0  0  0  0  0
   -2.0955    3.4263   -0.3531 H   0  0  0  0  0  0  0  0  0  0  0  0
   -1.8875    1.8914   -1.1923 H   0  0  0  0  0  0  0  0  0  0  0  0
   -0.5708    3.0677   -1.1702 H   0  0  0  0  0  0  0  0  0  0  0  0
   -1.7384    1.5744    1.2383 H   0  0  0  0  0  0  0  0  0  0  0  0
   -1.0283    3.8626    1.8464 H   0  0  0  0  0  0  0  0  0  0  0  0
   -0.1006    2.6059    2.6547 H   0  0  0  0  0  0  0  0  0  0  0  0
    1.4064    4.3507    1.9286 H   0  0  0  0  0  0  0  0  0  0  0  0
    0.8245    4.2893    0.2692 H   0  0  0  0  0  0  0  0  0  0  0  0
    1.4172    1.8827   -1.0286 H   0  0  0  0  0  0  0  0  0  0  0  0
    2.2996    0.7641   -0.0065 H   0  0  0  0  0  0  0  0  0  0  0  0
    0.4423    0.4463    1.4979 H   0  0  0  0  0  0  0  0  0  0  0  0
    0.2388   -2.0207   -1.3493 H   0  0  0  0  0  0  0  0  0  0  0  0
    1.4858   -0.7985   -1.3701 H   0  0  0  0  0  0  0  0  0  0  0  0
    1.1379   -1.6585    0.1465 H   0  0  0  0  0  0  0  0  0  0  0  0
   -2.1600   -0.7865   -2.8777 H   0  0  0  0  0  0  0  0  0  0  0  0
   -4.5622   -2.0550   -3.1940 H   0  0  0  0  0  0  0  0  0  0  0  0
   -5.2816   -2.8023   -0.8860 H   0  0  0  0  0  0  0  0  0  0  0  0
   -2.6373   -1.9437    2.9708 H   0  0  0  0  0  0  0  0  0  0  0  0
    5.3164    2.7426    0.1400 H   0  0  0  0  0  0  0  0  0  0  0  0
    4.1199    1.7705   -0.6816 H   0  0  0  0  0  0  0  0  0  0  0  0
  1  2  1  0
  2  3  1  0
  3  4  1  0
  4  5  1  0
  5  6  1  0
  6  7  1  0
  7  8  1  0
  8  9  1  0
  8 10  1  0
 10 11  2  0
 11 12  1  0
 12 13  2  0
 13 14  1  0
 14 15  1  0
 15 16  2  0
 16 17  1  0
 17 18  2  0
  5 19  1  0
 19 20  2  0
 19 21  1  0
 21 22  1  0
 22 23  3  0
  7  2  1  0
 18 10  1  0
 15 11  1  0
  1 24  1  0
  1 25  1  0
  1 26  1  0
  2 27  1  1
  3 28  1  0
  3 29  1  0
  4 30  1  0
  4 31  1  0
  6 32  1  0
  6 33  1  0
  7 34  1  1
  9 35  1  0
  9 36  1  0
  9 37  1  0
 12 38  1  0
 13 39  1  0
 14 40  1  0
 17 41  1  0
 21 42  1  0
 21 43  1  0
M  END
>  <energy_abs>  (27) 
10.66838652826723

>  <SMILES>  (27) 
C[C@@H]1CCN(C[C@@H]1N(C)c2c3cc[nH]c3ncn2)C(=O)CC#N

>  <cluster_no>  (27) 
27

>  <fda_drugs_id>  (27) 
UJLAWZDWDVHWOW-YPMHNXCESA-N

>  <initial_conformation_id>  (27) 
212

>  <minimize_method>  (27) 
MMFF

$$$$

     RDKit          3D

 43 45  0  0  0  0  0  0  0  0999 V2000
   -1.8356    2.6179    2.6107 C   0  0  0  0  0  0  0  0  0  0  0  0
   -0.4037    2.5265    2.0820 C   0  0  2  0  0  0  0  0  0  0  0  0
    0.1265    3.8955    1.6383 C   0  0  0  0  0  0  0  0  0  0  0  0
    1.6275    3.8163    1.3578 C   0  0  0  0  0  0  0  0  0  0  0  0
    2.0188    2.6339    0.5926 N   0  0  0  0  0  0  0  0  0  0  0  0
    0.9336    1.8684   -0.0284 C   0  0  0  0  0  0  0  0  0  0  0  0
   -0.1574    1.4370    0.9903 C   0  0  2  0  0  0  0  0  0  0  0  0
   -1.4156    0.9962    0.3362 N   0  0  0  0  0  0  0  0  0  0  0  0
   -2.0061    1.8465   -0.6962 C   0  0  0  0  0  0  0  0  0  0  0  0
   -1.4114   -0.3572   -0.0578 C   0  0  0  0  0  0  0  0  0  0  0  0
   -2.5897   -1.1171   -0.2235 C   0  0  0  0  0  0  0  0  0  0  0  0
   -3.9912   -0.9066   -0.0637 C   0  0  0  0  0  0  0  0  0  0  0  0
   -4.6373   -2.0822   -0.3841 C   0  0  0  0  0  0  0  0  0  0  0  0
   -3.6790   -3.0044   -0.7168 N   0  0  0  0  0  0  0  0  0  0  0  0
   -2.4381   -2.4397   -0.6121 C   0  0  0  0  0  0  0  0  0  0  0  0
   -1.2903   -3.0905   -0.8442 N   0  0  0  0  0  0  0  0  0  0  0  0
   -0.2318   -2.2940   -0.6334 C   0  0  0  0  0  0  0  0  0  0  0  0
   -0.2289   -0.9949   -0.2733 N   0  0  0  0  0  0  0  0  0  0  0  0
    3.3773    2.4087    0.4124 C   0  0  0  0  0  0  0  0  0  0  0  0
    4.2214    3.1553    0.9164 O   0  0  0  0  0  0  0  0  0  0  0  0
    3.8298    1.2400   -0.4330 C   0  0  0  0  0  0  0  0  0  0  0  0
    3.7472   -0.0113    0.3174 C   0  0  0  0  0  0  0  0  0  0  0  0
    3.6762   -1.0258    0.8785 N   0  0  0  0  0  0  0  0  0  0  0  0
   -1.8777    3.2838    3.4795 H   0  0  0  0  0  0  0  0  0  0  0  0
   -2.1974    1.6363    2.9327 H   0  0  0  0  0  0  0  0  0  0  0  0
   -2.5268    3.0176    1.8627 H   0  0  0  0  0  0  0  0  0  0  0  0
    0.2096    2.2323    2.9478 H   0  0  0  0  0  0  0  0  0  0  0  0
   -0.0530    4.6524    2.4103 H   0  0  0  0  0  0  0  0  0  0  0  0
   -0.4036    4.2329    0.7406 H   0  0  0  0  0  0  0  0  0  0  0  0
    1.9538    4.7055    0.8053 H   0  0  0  0  0  0  0  0  0  0  0  0
    2.1810    3.8022    2.3043 H   0  0  0  0  0  0  0  0  0  0  0  0
    0.5222    2.5224   -0.8057 H   0  0  0  0  0  0  0  0  0  0  0  0
    1.3166    0.9923   -0.5506 H   0  0  0  0  0  0  0  0  0  0  0  0
    0.2517    0.5912    1.5640 H   0  0  0  0  0  0  0  0  0  0  0  0
   -3.0790    1.6617   -0.8039 H   0  0  0  0  0  0  0  0  0  0  0  0
   -1.9046    2.9047   -0.4399 H   0  0  0  0  0  0  0  0  0  0  0  0
   -1.5286    1.6927   -1.6715 H   0  0  0  0  0  0  0  0  0  0  0  0
   -4.4697    0.0071    0.2633 H   0  0  0  0  0  0  0  0  0  0  0  0
   -5.6867   -2.3444   -0.3911 H   0  0  0  0  0  0  0  0  0  0  0  0
   -3.8361   -3.9660   -0.9815 H   0  0  0  0  0  0  0  0  0  0  0  0
    0.7444   -2.7481   -0.7720 H   0  0  0  0  0  0  0  0  0  0  0  0
    4.8701    1.4237   -0.7272 H   0  0  0  0  0  0  0  0  0  0  0  0
    3.2622    1.2027   -1.3666 H   0  0  0  0  0  0  0  0  0  0  0  0
  1  2  1  0
  2  3  1  0
  3  4  1  0
  4  5  1  0
  5  6  1  0
  6  7  1  0
  7  8  1  0
  8  9  1  0
  8 10  1  0
 10 11  2  0
 11 12  1  0
 12 13  2  0
 13 14  1  0
 14 15  1  0
 15 16  2  0
 16 17  1  0
 17 18  2  0
  5 19  1  0
 19 20  2  0
 19 21  1  0
 21 22  1  0
 22 23  3  0
  7  2  1  0
 18 10  1  0
 15 11  1  0
  1 24  1  0
  1 25  1  0
  1 26  1  0
  2 27  1  1
  3 28  1  0
  3 29  1  0
  4 30  1  0
  4 31  1  0
  6 32  1  0
  6 33  1  0
  7 34  1  1
  9 35  1  0
  9 36  1  0
  9 37  1  0
 12 38  1  0
 13 39  1  0
 14 40  1  0
 17 41  1  0
 21 42  1  0
 21 43  1  0
M  END
>  <energy_abs>  (28) 
14.121004501130601

>  <SMILES>  (28) 
C[C@@H]1CCN(C[C@@H]1N(C)c2c3cc[nH]c3ncn2)C(=O)CC#N

>  <cluster_no>  (28) 
28

>  <fda_drugs_id>  (28) 
UJLAWZDWDVHWOW-YPMHNXCESA-N

>  <initial_conformation_id>  (28) 
207

>  <minimize_method>  (28) 
MMFF

$$$$

     RDKit          3D

 43 45  0  0  0  0  0  0  0  0999 V2000
   -1.7067    2.7912   -1.4042 C   0  0  0  0  0  0  0  0  0  0  0  0
   -1.3128    3.1672    0.0263 C   0  0  2  0  0  0  0  0  0  0  0  0
   -0.1162    4.1378    0.0107 C   0  0  0  0  0  0  0  0  0  0  0  0
    1.1813    3.4683   -0.4303 C   0  0  0  0  0  0  0  0  0  0  0  0
    1.4872    2.2669    0.3461 N   0  0  0  0  0  0  0  0  0  0  0  0
    0.3815    1.3143    0.5303 C   0  0  0  0  0  0  0  0  0  0  0  0
   -0.9524    1.9775    0.9533 C   0  0  2  0  0  0  0  0  0  0  0  0
   -2.0487    1.0147    1.2386 N   0  0  0  0  0  0  0  0  0  0  0  0
   -3.3493    1.5832    1.5864 C   0  0  0  0  0  0  0  0  0  0  0  0
   -2.1788   -0.0952    0.4005 C   0  0  0  0  0  0  0  0  0  0  0  0
   -1.5679   -1.3292    0.7026 C   0  0  0  0  0  0  0  0  0  0  0  0
   -0.7657   -1.8540    1.7578 C   0  0  0  0  0  0  0  0  0  0  0  0
   -0.4733   -3.1669    1.4529 C   0  0  0  0  0  0  0  0  0  0  0  0
   -1.0839   -3.4629    0.2602 N   0  0  0  0  0  0  0  0  0  0  0  0
   -1.7571   -2.3640   -0.1993 C   0  0  0  0  0  0  0  0  0  0  0  0
   -2.4733   -2.3277   -1.3307 N   0  0  0  0  0  0  0  0  0  0  0  0
   -3.0426   -1.1242   -1.5041 C   0  0  0  0  0  0  0  0  0  0  0  0
   -2.9429   -0.0339   -0.7169 N   0  0  0  0  0  0  0  0  0  0  0  0
    2.8337    1.8664    0.3709 C   0  0  0  0  0  0  0  0  0  0  0  0
    3.7215    2.5778   -0.0999 O   0  0  0  0  0  0  0  0  0  0  0  0
    3.1386    0.5295    1.0203 C   0  0  0  0  0  0  0  0  0  0  0  0
    4.5748    0.2397    1.0626 C   0  0  0  0  0  0  0  0  0  0  0  0
    5.6952   -0.0580    1.1322 N   0  0  0  0  0  0  0  0  0  0  0  0
   -2.7129    2.3669   -1.4321 H   0  0  0  0  0  0  0  0  0  0  0  0
   -1.7312    3.6790   -2.0460 H   0  0  0  0  0  0  0  0  0  0  0  0
   -1.0163    2.0737   -1.8560 H   0  0  0  0  0  0  0  0  0  0  0  0
   -2.1576    3.7186    0.4582 H   0  0  0  0  0  0  0  0  0  0  0  0
    0.0209    4.5437    1.0217 H   0  0  0  0  0  0  0  0  0  0  0  0
   -0.3276    4.9945   -0.6404 H   0  0  0  0  0  0  0  0  0  0  0  0
    1.1329    3.1745   -1.4855 H   0  0  0  0  0  0  0  0  0  0  0  0
    1.9996    4.1912   -0.3368 H   0  0  0  0  0  0  0  0  0  0  0  0
    0.2835    0.7666   -0.4140 H   0  0  0  0  0  0  0  0  0  0  0  0
    0.6633    0.5897    1.2972 H   0  0  0  0  0  0  0  0  0  0  0  0
   -0.7409    2.4326    1.9333 H   0  0  0  0  0  0  0  0  0  0  0  0
   -3.2265    2.3606    2.3488 H   0  0  0  0  0  0  0  0  0  0  0  0
   -3.8576    2.0293    0.7247 H   0  0  0  0  0  0  0  0  0  0  0  0
   -4.0054    0.8179    2.0182 H   0  0  0  0  0  0  0  0  0  0  0  0
   -0.4493   -1.3225    2.6459 H   0  0  0  0  0  0  0  0  0  0  0  0
    0.0993   -3.9166    1.9833 H   0  0  0  0  0  0  0  0  0  0  0  0
   -1.0688   -4.3525   -0.2180 H   0  0  0  0  0  0  0  0  0  0  0  0
   -3.6598   -1.0123   -2.3905 H   0  0  0  0  0  0  0  0  0  0  0  0
    2.7492    0.5405    2.0440 H   0  0  0  0  0  0  0  0  0  0  0  0
    2.6333   -0.2605    0.4545 H   0  0  0  0  0  0  0  0  0  0  0  0
  1  2  1  0
  2  3  1  0
  3  4  1  0
  4  5  1  0
  5  6  1  0
  6  7  1  0
  7  8  1  0
  8  9  1  0
  8 10  1  0
 10 11  2  0
 11 12  1  0
 12 13  2  0
 13 14  1  0
 14 15  1  0
 15 16  2  0
 16 17  1  0
 17 18  2  0
  5 19  1  0
 19 20  2  0
 19 21  1  0
 21 22  1  0
 22 23  3  0
  7  2  1  0
 18 10  1  0
 15 11  1  0
  1 24  1  0
  1 25  1  0
  1 26  1  0
  2 27  1  1
  3 28  1  0
  3 29  1  0
  4 30  1  0
  4 31  1  0
  6 32  1  0
  6 33  1  0
  7 34  1  1
  9 35  1  0
  9 36  1  0
  9 37  1  0
 12 38  1  0
 13 39  1  0
 14 40  1  0
 17 41  1  0
 21 42  1  0
 21 43  1  0
M  END
>  <energy_abs>  (29) 
15.016380945250562

>  <SMILES>  (29) 
C[C@@H]1CCN(C[C@@H]1N(C)c2c3cc[nH]c3ncn2)C(=O)CC#N

>  <cluster_no>  (29) 
29

>  <fda_drugs_id>  (29) 
UJLAWZDWDVHWOW-YPMHNXCESA-N

>  <initial_conformation_id>  (29) 
198

>  <minimize_method>  (29) 
MMFF

$$$$

     RDKit          3D

 43 45  0  0  0  0  0  0  0  0999 V2000
    0.3403   -1.0118   -2.9995 C   0  0  0  0  0  0  0  0  0  0  0  0
    0.3311    0.3415   -2.2833 C   0  0  2  0  0  0  0  0  0  0  0  0
    1.6230    1.1064   -2.6462 C   0  0  0  0  0  0  0  0  0  0  0  0
    2.0256    2.1324   -1.5922 C   0  0  0  0  0  0  0  0  0  0  0  0
    2.2607    1.4960   -0.2947 N   0  0  0  0  0  0  0  0  0  0  0  0
    1.4367    0.3211    0.0307 C   0  0  0  0  0  0  0  0  0  0  0  0
    0.1013    0.2998   -0.7420 C   0  0  2  0  0  0  0  0  0  0  0  0
   -0.8348   -0.7842   -0.3543 N   0  0  0  0  0  0  0  0  0  0  0  0
   -0.2601   -2.0615    0.0827 C   0  0  0  0  0  0  0  0  0  0  0  0
   -1.7928   -0.3745    0.6014 C   0  0  0  0  0  0  0  0  0  0  0  0
   -3.0794   -0.9476    0.6699 C   0  0  0  0  0  0  0  0  0  0  0  0
   -3.8113   -1.9329   -0.0552 C   0  0  0  0  0  0  0  0  0  0  0  0
   -5.0597   -2.0416    0.5216 C   0  0  0  0  0  0  0  0  0  0  0  0
   -5.1137   -1.1528    1.5651 N   0  0  0  0  0  0  0  0  0  0  0  0
   -3.9263   -0.4800    1.6623 C   0  0  0  0  0  0  0  0  0  0  0  0
   -3.6604    0.4653    2.5739 N   0  0  0  0  0  0  0  0  0  0  0  0
   -2.4186    0.9514    2.4174 C   0  0  0  0  0  0  0  0  0  0  0  0
   -1.4937    0.5986    1.5019 N   0  0  0  0  0  0  0  0  0  0  0  0
    3.2181    1.9003    0.6354 C   0  0  0  0  0  0  0  0  0  0  0  0
    3.4518    1.2315    1.6423 O   0  0  0  0  0  0  0  0  0  0  0  0
    3.9646    3.1842    0.3342 C   0  0  0  0  0  0  0  0  0  0  0  0
    4.6788    3.7012    1.5048 C   0  0  0  0  0  0  0  0  0  0  0  0
    5.2614    4.1759    2.3901 N   0  0  0  0  0  0  0  0  0  0  0  0
    1.1571   -1.6479   -2.6450 H   0  0  0  0  0  0  0  0  0  0  0  0
    0.4771   -0.8711   -4.0778 H   0  0  0  0  0  0  0  0  0  0  0  0
   -0.6054   -1.5457   -2.8645 H   0  0  0  0  0  0  0  0  0  0  0  0
   -0.5154    0.9021   -2.7061 H   0  0  0  0  0  0  0  0  0  0  0  0
    1.4907    1.6029   -3.6151 H   0  0  0  0  0  0  0  0  0  0  0  0
    2.4534    0.3983   -2.7700 H   0  0  0  0  0  0  0  0  0  0  0  0
    1.2372    2.8812   -1.4553 H   0  0  0  0  0  0  0  0  0  0  0  0
    2.9256    2.6555   -1.9263 H   0  0  0  0  0  0  0  0  0  0  0  0
    2.0432   -0.5599   -0.2120 H   0  0  0  0  0  0  0  0  0  0  0  0
    1.2562    0.3007    1.1114 H   0  0  0  0  0  0  0  0  0  0  0  0
   -0.3808    1.2688   -0.5366 H   0  0  0  0  0  0  0  0  0  0  0  0
    0.5290   -2.3918   -0.5983 H   0  0  0  0  0  0  0  0  0  0  0  0
    0.1752   -1.9930    1.0873 H   0  0  0  0  0  0  0  0  0  0  0  0
   -1.0139   -2.8567    0.0863 H   0  0  0  0  0  0  0  0  0  0  0  0
   -3.4547   -2.4931   -0.9097 H   0  0  0  0  0  0  0  0  0  0  0  0
   -5.9097   -2.6655    0.2788 H   0  0  0  0  0  0  0  0  0  0  0  0
   -5.8996   -0.9940    2.1787 H   0  0  0  0  0  0  0  0  0  0  0  0
   -2.1192    1.7266    3.1164 H   0  0  0  0  0  0  0  0  0  0  0  0
    4.6782    2.9849   -0.4723 H   0  0  0  0  0  0  0  0  0  0  0  0
    3.2535    3.9451   -0.0046 H   0  0  0  0  0  0  0  0  0  0  0  0
  1  2  1  0
  2  3  1  0
  3  4  1  0
  4  5  1  0
  5  6  1  0
  6  7  1  0
  7  8  1  0
  8  9  1  0
  8 10  1  0
 10 11  2  0
 11 12  1  0
 12 13  2  0
 13 14  1  0
 14 15  1  0
 15 16  2  0
 16 17  1  0
 17 18  2  0
  5 19  1  0
 19 20  2  0
 19 21  1  0
 21 22  1  0
 22 23  3  0
  7  2  1  0
 18 10  1  0
 15 11  1  0
  1 24  1  0
  1 25  1  0
  1 26  1  0
  2 27  1  6
  3 28  1  0
  3 29  1  0
  4 30  1  0
  4 31  1  0
  6 32  1  0
  6 33  1  0
  7 34  1  1
  9 35  1  0
  9 36  1  0
  9 37  1  0
 12 38  1  0
 13 39  1  0
 14 40  1  0
 17 41  1  0
 21 42  1  0
 21 43  1  0
M  END
>  <energy_abs>  (30) 
16.390377884385423

>  <SMILES>  (30) 
C[C@@H]1CCN(C[C@@H]1N(C)c2c3cc[nH]c3ncn2)C(=O)CC#N

>  <cluster_no>  (30) 
30

>  <fda_drugs_id>  (30) 
UJLAWZDWDVHWOW-YPMHNXCESA-N

>  <initial_conformation_id>  (30) 
167

>  <minimize_method>  (30) 
MMFF

$$$$

     RDKit          3D

 43 45  0  0  0  0  0  0  0  0999 V2000
   -0.4867   -0.2529   -3.2248 C   0  0  0  0  0  0  0  0  0  0  0  0
    0.5207    0.4405   -2.3071 C   0  0  2  0  0  0  0  0  0  0  0  0
    1.9465   -0.0765   -2.5372 C   0  0  0  0  0  0  0  0  0  0  0  0
    2.9589    0.8009   -1.7991 C   0  0  0  0  0  0  0  0  0  0  0  0
    2.5264    1.1876   -0.4573 N   0  0  0  0  0  0  0  0  0  0  0  0
    1.4134    0.4245    0.1155 C   0  0  0  0  0  0  0  0  0  0  0  0
    0.1510    0.4454   -0.7890 C   0  0  2  0  0  0  0  0  0  0  0  0
   -0.8292   -0.6134   -0.4431 N   0  0  0  0  0  0  0  0  0  0  0  0
   -0.3540   -1.9886   -0.2898 C   0  0  0  0  0  0  0  0  0  0  0  0
   -1.7174   -0.2667    0.5938 C   0  0  0  0  0  0  0  0  0  0  0  0
   -3.0011   -0.8411    0.7246 C   0  0  0  0  0  0  0  0  0  0  0  0
   -3.7963   -1.7778   -0.0001 C   0  0  0  0  0  0  0  0  0  0  0  0
   -4.9998   -1.9147    0.6597 C   0  0  0  0  0  0  0  0  0  0  0  0
   -4.9706   -1.0853    1.7510 N   0  0  0  0  0  0  0  0  0  0  0  0
   -3.7752   -0.4215    1.7957 C   0  0  0  0  0  0  0  0  0  0  0  0
   -3.4449    0.4809    2.7288 N   0  0  0  0  0  0  0  0  0  0  0  0
   -2.2227    0.9842    2.5026 C   0  0  0  0  0  0  0  0  0  0  0  0
   -1.3603    0.6718    1.5131 N   0  0  0  0  0  0  0  0  0  0  0  0
    3.3272    2.0939    0.2391 C   0  0  0  0  0  0  0  0  0  0  0  0
    4.3375    2.5706   -0.2796 O   0  0  0  0  0  0  0  0  0  0  0  0
    2.8920    2.4634    1.6428 C   0  0  0  0  0  0  0  0  0  0  0  0
    3.7471    3.4911    2.2435 C   0  0  0  0  0  0  0  0  0  0  0  0
    4.3797    4.3020    2.7830 N   0  0  0  0  0  0  0  0  0  0  0  0
   -1.4985    0.1305   -3.0567 H   0  0  0  0  0  0  0  0  0  0  0  0
   -0.2353   -0.0662   -4.2748 H   0  0  0  0  0  0  0  0  0  0  0  0
   -0.4955   -1.3374   -3.0821 H   0  0  0  0  0  0  0  0  0  0  0  0
    0.5280    1.4954   -2.6223 H   0  0  0  0  0  0  0  0  0  0  0  0
    2.0325   -1.1126   -2.1903 H   0  0  0  0  0  0  0  0  0  0  0  0
    2.1923   -0.0846   -3.6056 H   0  0  0  0  0  0  0  0  0  0  0  0
    3.1404    1.7194   -2.3707 H   0  0  0  0  0  0  0  0  0  0  0  0
    3.9180    0.2766   -1.7143 H   0  0  0  0  0  0  0  0  0  0  0  0
    1.7955   -0.5936    0.2522 H   0  0  0  0  0  0  0  0  0  0  0  0
    1.1605    0.7820    1.1143 H   0  0  0  0  0  0  0  0  0  0  0  0
   -0.3331    1.4240   -0.6467 H   0  0  0  0  0  0  0  0  0  0  0  0
   -1.1634   -2.7122   -0.4273 H   0  0  0  0  0  0  0  0  0  0  0  0
    0.4008   -2.2305   -1.0432 H   0  0  0  0  0  0  0  0  0  0  0  0
    0.0935   -2.1552    0.6974 H   0  0  0  0  0  0  0  0  0  0  0  0
   -3.5158   -2.2863   -0.9132 H   0  0  0  0  0  0  0  0  0  0  0  0
   -5.8719   -2.5174    0.4426 H   0  0  0  0  0  0  0  0  0  0  0  0
   -5.7115   -0.9524    2.4242 H   0  0  0  0  0  0  0  0  0  0  0  0
   -1.8828    1.7378    3.2067 H   0  0  0  0  0  0  0  0  0  0  0  0
    1.8629    2.8369    1.6052 H   0  0  0  0  0  0  0  0  0  0  0  0
    2.9236    1.5634    2.2661 H   0  0  0  0  0  0  0  0  0  0  0  0
  1  2  1  0
  2  3  1  0
  3  4  1  0
  4  5  1  0
  5  6  1  0
  6  7  1  0
  7  8  1  0
  8  9  1  0
  8 10  1  0
 10 11  2  0
 11 12  1  0
 12 13  2  0
 13 14  1  0
 14 15  1  0
 15 16  2  0
 16 17  1  0
 17 18  2  0
  5 19  1  0
 19 20  2  0
 19 21  1  0
 21 22  1  0
 22 23  3  0
  7  2  1  0
 18 10  1  0
 15 11  1  0
  1 24  1  0
  1 25  1  0
  1 26  1  0
  2 27  1  6
  3 28  1  0
  3 29  1  0
  4 30  1  0
  4 31  1  0
  6 32  1  0
  6 33  1  0
  7 34  1  1
  9 35  1  0
  9 36  1  0
  9 37  1  0
 12 38  1  0
 13 39  1  0
 14 40  1  0
 17 41  1  0
 21 42  1  0
 21 43  1  0
M  END
>  <energy_abs>  (31) 
14.165222381478626

>  <SMILES>  (31) 
C[C@@H]1CCN(C[C@@H]1N(C)c2c3cc[nH]c3ncn2)C(=O)CC#N

>  <cluster_no>  (31) 
31

>  <fda_drugs_id>  (31) 
UJLAWZDWDVHWOW-YPMHNXCESA-N

>  <initial_conformation_id>  (31) 
166

>  <minimize_method>  (31) 
MMFF

$$$$

     RDKit          3D

 43 45  0  0  0  0  0  0  0  0999 V2000
    1.9777   -2.2984    0.7196 C   0  0  0  0  0  0  0  0  0  0  0  0
    1.8127   -1.3943   -0.5104 C   0  0  2  0  0  0  0  0  0  0  0  0
    3.0771   -0.5577   -0.7519 C   0  0  0  0  0  0  0  0  0  0  0  0
    3.2907    0.5140    0.3091 C   0  0  0  0  0  0  0  0  0  0  0  0
    2.1091    1.3538    0.4920 N   0  0  0  0  0  0  0  0  0  0  0  0
    0.8249    0.6449    0.6404 C   0  0  0  0  0  0  0  0  0  0  0  0
    0.5752   -0.4525   -0.4372 C   0  0  2  0  0  0  0  0  0  0  0  0
   -0.6705   -1.2367   -0.1737 N   0  0  0  0  0  0  0  0  0  0  0  0
   -1.0069   -2.2256   -1.2108 C   0  0  0  0  0  0  0  0  0  0  0  0
   -1.8116   -0.4016   -0.0605 C   0  0  0  0  0  0  0  0  0  0  0  0
   -2.8049   -0.6398    0.9069 C   0  0  0  0  0  0  0  0  0  0  0  0
   -3.0245   -1.5881    1.9466 C   0  0  0  0  0  0  0  0  0  0  0  0
   -4.2188   -1.2700    2.5597 C   0  0  0  0  0  0  0  0  0  0  0  0
   -4.7275   -0.1615    1.9302 N   0  0  0  0  0  0  0  0  0  0  0  0
   -3.8827    0.2301    0.9277 C   0  0  0  0  0  0  0  0  0  0  0  0
   -4.0886    1.2811    0.1222 N   0  0  0  0  0  0  0  0  0  0  0  0
   -3.0830    1.4202   -0.7584 C   0  0  0  0  0  0  0  0  0  0  0  0
   -1.9840    0.6510   -0.9000 N   0  0  0  0  0  0  0  0  0  0  0  0
    2.1639    2.6714    0.9540 C   0  0  0  0  0  0  0  0  0  0  0  0
    1.1633    3.2672    1.3622 O   0  0  0  0  0  0  0  0  0  0  0  0
    3.4940    3.3916    0.9574 C   0  0  0  0  0  0  0  0  0  0  0  0
    3.8612    3.8050   -0.3955 C   0  0  0  0  0  0  0  0  0  0  0  0
    4.1955    4.1144   -1.4634 N   0  0  0  0  0  0  0  0  0  0  0  0
    2.8745   -2.9195    0.6183 H   0  0  0  0  0  0  0  0  0  0  0  0
    1.1265   -2.9771    0.8314 H   0  0  0  0  0  0  0  0  0  0  0  0
    2.0718   -1.7302    1.6490 H   0  0  0  0  0  0  0  0  0  0  0  0
    1.7056   -2.0538   -1.3807 H   0  0  0  0  0  0  0  0  0  0  0  0
    3.9592   -1.2071   -0.8005 H   0  0  0  0  0  0  0  0  0  0  0  0
    2.9927   -0.0715   -1.7329 H   0  0  0  0  0  0  0  0  0  0  0  0
    4.1549    1.1149    0.0181 H   0  0  0  0  0  0  0  0  0  0  0  0
    3.5279    0.0685    1.2817 H   0  0  0  0  0  0  0  0  0  0  0  0
    0.8108    0.2111    1.6481 H   0  0  0  0  0  0  0  0  0  0  0  0
    0.0165    1.3816    0.6162 H   0  0  0  0  0  0  0  0  0  0  0  0
    0.4941    0.0467   -1.4145 H   0  0  0  0  0  0  0  0  0  0  0  0
   -1.0367   -1.7745   -2.2102 H   0  0  0  0  0  0  0  0  0  0  0  0
   -1.9726   -2.7088   -1.0145 H   0  0  0  0  0  0  0  0  0  0  0  0
   -0.2694   -3.0338   -1.2235 H   0  0  0  0  0  0  0  0  0  0  0  0
   -2.3698   -2.4084    2.2103 H   0  0  0  0  0  0  0  0  0  0  0  0
   -4.7452   -1.7296    3.3855 H   0  0  0  0  0  0  0  0  0  0  0  0
   -5.5886    0.3150    2.1552 H   0  0  0  0  0  0  0  0  0  0  0  0
   -3.1650    2.2571   -1.4456 H   0  0  0  0  0  0  0  0  0  0  0  0
    3.3974    4.2752    1.5998 H   0  0  0  0  0  0  0  0  0  0  0  0
    4.2632    2.7688    1.4231 H   0  0  0  0  0  0  0  0  0  0  0  0
  1  2  1  0
  2  3  1  0
  3  4  1  0
  4  5  1  0
  5  6  1  0
  6  7  1  0
  7  8  1  0
  8  9  1  0
  8 10  1  0
 10 11  2  0
 11 12  1  0
 12 13  2  0
 13 14  1  0
 14 15  1  0
 15 16  2  0
 16 17  1  0
 17 18  2  0
  5 19  1  0
 19 20  2  0
 19 21  1  0
 21 22  1  0
 22 23  3  0
  7  2  1  0
 18 10  1  0
 15 11  1  0
  1 24  1  0
  1 25  1  0
  1 26  1  0
  2 27  1  6
  3 28  1  0
  3 29  1  0
  4 30  1  0
  4 31  1  0
  6 32  1  0
  6 33  1  0
  7 34  1  6
  9 35  1  0
  9 36  1  0
  9 37  1  0
 12 38  1  0
 13 39  1  0
 14 40  1  0
 17 41  1  0
 21 42  1  0
 21 43  1  0
M  END
>  <energy_abs>  (32) 
10.4624242226407

>  <SMILES>  (32) 
C[C@@H]1CCN(C[C@@H]1N(C)c2c3cc[nH]c3ncn2)C(=O)CC#N

>  <cluster_no>  (32) 
32

>  <fda_drugs_id>  (32) 
UJLAWZDWDVHWOW-YPMHNXCESA-N

>  <initial_conformation_id>  (32) 
164

>  <minimize_method>  (32) 
MMFF

$$$$

     RDKit          3D

 43 45  0  0  0  0  0  0  0  0999 V2000
    0.7968   -1.9596    1.8767 C   0  0  0  0  0  0  0  0  0  0  0  0
    1.6744   -1.0568    1.0068 C   0  0  2  0  0  0  0  0  0  0  0  0
    2.5253   -0.1517    1.9234 C   0  0  0  0  0  0  0  0  0  0  0  0
    3.1284    1.0396    1.1833 C   0  0  0  0  0  0  0  0  0  0  0  0
    2.1098    1.8820    0.5508 N   0  0  0  0  0  0  0  0  0  0  0  0
    0.7903    1.2609    0.3195 C   0  0  0  0  0  0  0  0  0  0  0  0
    0.9407   -0.2235   -0.0808 C   0  0  2  0  0  0  0  0  0  0  0  0
   -0.2525   -0.8758   -0.6549 N   0  0  0  0  0  0  0  0  0  0  0  0
   -0.0258   -1.8949   -1.6667 C   0  0  0  0  0  0  0  0  0  0  0  0
   -1.5303   -0.6683   -0.1539 C   0  0  0  0  0  0  0  0  0  0  0  0
   -2.7472   -1.0519   -0.7819 C   0  0  0  0  0  0  0  0  0  0  0  0
   -3.1571   -1.6681   -2.0072 C   0  0  0  0  0  0  0  0  0  0  0  0
   -4.5337   -1.7546   -2.0165 C   0  0  0  0  0  0  0  0  0  0  0  0
   -4.9856   -1.2059   -0.8481 N   0  0  0  0  0  0  0  0  0  0  0  0
   -3.9267   -0.7700   -0.1012 C   0  0  0  0  0  0  0  0  0  0  0  0
   -4.0606   -0.1696    1.0876 N   0  0  0  0  0  0  0  0  0  0  0  0
   -2.8689    0.1704    1.5890 C   0  0  0  0  0  0  0  0  0  0  0  0
   -1.6541   -0.0397    1.0486 N   0  0  0  0  0  0  0  0  0  0  0  0
    2.2835    3.2206    0.2177 C   0  0  0  0  0  0  0  0  0  0  0  0
    1.3651    3.9099   -0.2316 O   0  0  0  0  0  0  0  0  0  0  0  0
    3.6547    3.8333    0.3943 C   0  0  0  0  0  0  0  0  0  0  0  0
    3.7833    4.4237    1.7247 C   0  0  0  0  0  0  0  0  0  0  0  0
    3.9324    4.8685    2.7867 N   0  0  0  0  0  0  0  0  0  0  0  0
    0.2379   -2.6820    1.2746 H   0  0  0  0  0  0  0  0  0  0  0  0
    0.0904   -1.3807    2.4782 H   0  0  0  0  0  0  0  0  0  0  0  0
    1.4183   -2.5364    2.5713 H   0  0  0  0  0  0  0  0  0  0  0  0
    2.3648   -1.7266    0.4742 H   0  0  0  0  0  0  0  0  0  0  0  0
    3.3264   -0.7444    2.3812 H   0  0  0  0  0  0  0  0  0  0  0  0
    1.9071    0.2273    2.7483 H   0  0  0  0  0  0  0  0  0  0  0  0
    3.8008    0.6939    0.3895 H   0  0  0  0  0  0  0  0  0  0  0  0
    3.7190    1.6374    1.8828 H   0  0  0  0  0  0  0  0  0  0  0  0
    0.2497    1.8100   -0.4594 H   0  0  0  0  0  0  0  0  0  0  0  0
    0.2412    1.3866    1.2576 H   0  0  0  0  0  0  0  0  0  0  0  0
    1.6570   -0.1743   -0.9175 H   0  0  0  0  0  0  0  0  0  0  0  0
    1.0315   -2.1796   -1.7190 H   0  0  0  0  0  0  0  0  0  0  0  0
   -0.5771   -2.8157   -1.4476 H   0  0  0  0  0  0  0  0  0  0  0  0
   -0.3009   -1.5193   -2.6570 H   0  0  0  0  0  0  0  0  0  0  0  0
   -2.5230   -2.0101   -2.8120 H   0  0  0  0  0  0  0  0  0  0  0  0
   -5.2229   -2.1479   -2.7519 H   0  0  0  0  0  0  0  0  0  0  0  0
   -5.9488   -1.1098   -0.5606 H   0  0  0  0  0  0  0  0  0  0  0  0
   -2.8789    0.6770    2.5490 H   0  0  0  0  0  0  0  0  0  0  0  0
    3.7779    4.6043   -0.3754 H   0  0  0  0  0  0  0  0  0  0  0  0
    4.4383    3.0942    0.2043 H   0  0  0  0  0  0  0  0  0  0  0  0
  1  2  1  0
  2  3  1  0
  3  4  1  0
  4  5  1  0
  5  6  1  0
  6  7  1  0
  7  8  1  0
  8  9  1  0
  8 10  1  0
 10 11  2  0
 11 12  1  0
 12 13  2  0
 13 14  1  0
 14 15  1  0
 15 16  2  0
 16 17  1  0
 17 18  2  0
  5 19  1  0
 19 20  2  0
 19 21  1  0
 21 22  1  0
 22 23  3  0
  7  2  1  0
 18 10  1  0
 15 11  1  0
  1 24  1  0
  1 25  1  0
  1 26  1  0
  2 27  1  6
  3 28  1  0
  3 29  1  0
  4 30  1  0
  4 31  1  0
  6 32  1  0
  6 33  1  0
  7 34  1  6
  9 35  1  0
  9 36  1  0
  9 37  1  0
 12 38  1  0
 13 39  1  0
 14 40  1  0
 17 41  1  0
 21 42  1  0
 21 43  1  0
M  END
>  <energy_abs>  (33) 
17.992358666763664

>  <SMILES>  (33) 
C[C@@H]1CCN(C[C@@H]1N(C)c2c3cc[nH]c3ncn2)C(=O)CC#N

>  <cluster_no>  (33) 
33

>  <fda_drugs_id>  (33) 
UJLAWZDWDVHWOW-YPMHNXCESA-N

>  <initial_conformation_id>  (33) 
127

>  <minimize_method>  (33) 
MMFF

$$$$

     RDKit          3D

 43 45  0  0  0  0  0  0  0  0999 V2000
    0.4529   -0.2189    3.0670 C   0  0  0  0  0  0  0  0  0  0  0  0
    0.4394   -0.3650    1.5431 C   0  0  2  0  0  0  0  0  0  0  0  0
    1.8250   -0.7995    1.0304 C   0  0  0  0  0  0  0  0  0  0  0  0
    2.8717    0.3071    1.1260 C   0  0  0  0  0  0  0  0  0  0  0  0
    2.4280    1.5496    0.4907 N   0  0  0  0  0  0  0  0  0  0  0  0
    1.0818    2.0131    0.8602 C   0  0  0  0  0  0  0  0  0  0  0  0
    0.0055    0.9054    0.7616 C   0  0  2  0  0  0  0  0  0  0  0  0
   -1.3611    1.3953    1.0689 N   0  0  0  0  0  0  0  0  0  0  0  0
   -1.5744    2.3264    2.1732 C   0  0  0  0  0  0  0  0  0  0  0  0
   -2.3878    0.4469    0.9354 C   0  0  0  0  0  0  0  0  0  0  0  0
   -2.6899   -0.2220   -0.2730 C   0  0  0  0  0  0  0  0  0  0  0  0
   -2.2310   -0.1914   -1.6244 C   0  0  0  0  0  0  0  0  0  0  0  0
   -2.9592   -1.1147   -2.3453 C   0  0  0  0  0  0  0  0  0  0  0  0
   -3.8561   -1.6943   -1.4870 N   0  0  0  0  0  0  0  0  0  0  0  0
   -3.7170   -1.1545   -0.2378 C   0  0  0  0  0  0  0  0  0  0  0  0
   -4.4713   -1.4927    0.8163 N   0  0  0  0  0  0  0  0  0  0  0  0
   -4.1307   -0.7810    1.9004 C   0  0  0  0  0  0  0  0  0  0  0  0
   -3.1621    0.1479    2.0160 N   0  0  0  0  0  0  0  0  0  0  0  0
    3.2970    2.4961   -0.0543 C   0  0  0  0  0  0  0  0  0  0  0  0
    2.9277    3.6438   -0.3176 O   0  0  0  0  0  0  0  0  0  0  0  0
    4.7320    2.1039   -0.3278 C   0  0  0  0  0  0  0  0  0  0  0  0
    4.8165    1.2588   -1.5172 C   0  0  0  0  0  0  0  0  0  0  0  0
    4.9054    0.5583   -2.4386 N   0  0  0  0  0  0  0  0  0  0  0  0
    1.0070    0.6630    3.3996 H   0  0  0  0  0  0  0  0  0  0  0  0
   -0.5644   -0.1538    3.4622 H   0  0  0  0  0  0  0  0  0  0  0  0
    0.9127   -1.0966    3.5348 H   0  0  0  0  0  0  0  0  0  0  0  0
   -0.2515   -1.1856    1.3108 H   0  0  0  0  0  0  0  0  0  0  0  0
    1.7290   -1.1023   -0.0209 H   0  0  0  0  0  0  0  0  0  0  0  0
    2.1742   -1.6838    1.5766 H   0  0  0  0  0  0  0  0  0  0  0  0
    3.7962   -0.0544    0.6710 H   0  0  0  0  0  0  0  0  0  0  0  0
    3.1016    0.5416    2.1716 H   0  0  0  0  0  0  0  0  0  0  0  0
    0.7855    2.8511    0.2184 H   0  0  0  0  0  0  0  0  0  0  0  0
    1.1628    2.4080    1.8794 H   0  0  0  0  0  0  0  0  0  0  0  0
    0.0106    0.6228   -0.2986 H   0  0  0  0  0  0  0  0  0  0  0  0
   -2.6013    2.7135    2.1716 H   0  0  0  0  0  0  0  0  0  0  0  0
   -0.9335    3.2071    2.0679 H   0  0  0  0  0  0  0  0  0  0  0  0
   -1.3761    1.8763    3.1494 H   0  0  0  0  0  0  0  0  0  0  0  0
   -1.4588    0.4492   -2.0293 H   0  0  0  0  0  0  0  0  0  0  0  0
   -2.9248   -1.3968   -3.3893 H   0  0  0  0  0  0  0  0  0  0  0  0
   -4.5410   -2.3986   -1.7196 H   0  0  0  0  0  0  0  0  0  0  0  0
   -4.7055   -0.9783    2.7999 H   0  0  0  0  0  0  0  0  0  0  0  0
    5.3090    3.0230   -0.4856 H   0  0  0  0  0  0  0  0  0  0  0  0
    5.1694    1.6246    0.5526 H   0  0  0  0  0  0  0  0  0  0  0  0
  1  2  1  0
  2  3  1  0
  3  4  1  0
  4  5  1  0
  5  6  1  0
  6  7  1  0
  7  8  1  0
  8  9  1  0
  8 10  1  0
 10 11  2  0
 11 12  1  0
 12 13  2  0
 13 14  1  0
 14 15  1  0
 15 16  2  0
 16 17  1  0
 17 18  2  0
  5 19  1  0
 19 20  2  0
 19 21  1  0
 21 22  1  0
 22 23  3  0
  7  2  1  0
 18 10  1  0
 15 11  1  0
  1 24  1  0
  1 25  1  0
  1 26  1  0
  2 27  1  1
  3 28  1  0
  3 29  1  0
  4 30  1  0
  4 31  1  0
  6 32  1  0
  6 33  1  0
  7 34  1  6
  9 35  1  0
  9 36  1  0
  9 37  1  0
 12 38  1  0
 13 39  1  0
 14 40  1  0
 17 41  1  0
 21 42  1  0
 21 43  1  0
M  END
>  <energy_abs>  (34) 
13.09422295869937

>  <SMILES>  (34) 
C[C@@H]1CCN(C[C@@H]1N(C)c2c3cc[nH]c3ncn2)C(=O)CC#N

>  <cluster_no>  (34) 
34

>  <fda_drugs_id>  (34) 
UJLAWZDWDVHWOW-YPMHNXCESA-N

>  <initial_conformation_id>  (34) 
83

>  <minimize_method>  (34) 
MMFF

$$$$

     RDKit          3D

 43 45  0  0  0  0  0  0  0  0999 V2000
    0.8644    0.4018   -2.4739 C   0  0  0  0  0  0  0  0  0  0  0  0
    0.5653    1.7350   -1.7836 C   0  0  2  0  0  0  0  0  0  0  0  0
    1.8821    2.4336   -1.3945 C   0  0  0  0  0  0  0  0  0  0  0  0
    2.6060    1.7316   -0.2500 C   0  0  0  0  0  0  0  0  0  0  0  0
    1.7441    1.5569    0.9190 N   0  0  0  0  0  0  0  0  0  0  0  0
    0.4148    0.9776    0.6592 C   0  0  0  0  0  0  0  0  0  0  0  0
   -0.3321    1.6469   -0.5188 C   0  0  2  0  0  0  0  0  0  0  0  0
   -1.7144    1.1470   -0.7456 N   0  0  0  0  0  0  0  0  0  0  0  0
   -2.4727    1.8006   -1.8104 C   0  0  0  0  0  0  0  0  0  0  0  0
   -1.9385   -0.2317   -0.7185 C   0  0  0  0  0  0  0  0  0  0  0  0
   -2.2627   -0.9202    0.4695 C   0  0  0  0  0  0  0  0  0  0  0  0
   -2.4650   -0.5825    1.8399 C   0  0  0  0  0  0  0  0  0  0  0  0
   -2.7698   -1.7415    2.5227 C   0  0  0  0  0  0  0  0  0  0  0  0
   -2.7749   -2.7683    1.6147 N   0  0  0  0  0  0  0  0  0  0  0  0
   -2.4871   -2.2847    0.3677 C   0  0  0  0  0  0  0  0  0  0  0  0
   -2.4459   -3.0310   -0.7444 N   0  0  0  0  0  0  0  0  0  0  0  0
   -2.1777   -2.2759   -1.8206 C   0  0  0  0  0  0  0  0  0  0  0  0
   -1.9397   -0.9500   -1.8710 N   0  0  0  0  0  0  0  0  0  0  0  0
    2.2155    1.4982    2.2318 C   0  0  0  0  0  0  0  0  0  0  0  0
    1.5089    1.1019    3.1627 O   0  0  0  0  0  0  0  0  0  0  0  0
    3.6343    1.9343    2.5222 C   0  0  0  0  0  0  0  0  0  0  0  0
    3.7364    3.3922    2.5125 C   0  0  0  0  0  0  0  0  0  0  0  0
    3.8508    4.5469    2.4756 N   0  0  0  0  0  0  0  0  0  0  0  0
    1.6874    0.5089   -3.1894 H   0  0  0  0  0  0  0  0  0  0  0  0
    0.0025    0.0638   -3.0533 H   0  0  0  0  0  0  0  0  0  0  0  0
    1.1386   -0.3860   -1.7671 H   0  0  0  0  0  0  0  0  0  0  0  0
    0.0777    2.3789   -2.5265 H   0  0  0  0  0  0  0  0  0  0  0  0
    2.5482    2.5044   -2.2627 H   0  0  0  0  0  0  0  0  0  0  0  0
    1.6573    3.4649   -1.0917 H   0  0  0  0  0  0  0  0  0  0  0  0
    3.4934    2.3152    0.0031 H   0  0  0  0  0  0  0  0  0  0  0  0
    2.9531    0.7367   -0.5512 H   0  0  0  0  0  0  0  0  0  0  0  0
   -0.1950    1.0750    1.5622 H   0  0  0  0  0  0  0  0  0  0  0  0
    0.5713   -0.0931    0.4851 H   0  0  0  0  0  0  0  0  0  0  0  0
   -0.4756    2.6903   -0.1975 H   0  0  0  0  0  0  0  0  0  0  0  0
   -2.1197    1.5206   -2.8092 H   0  0  0  0  0  0  0  0  0  0  0  0
   -2.3911    2.8892   -1.7157 H   0  0  0  0  0  0  0  0  0  0  0  0
   -3.5392    1.5560   -1.7365 H   0  0  0  0  0  0  0  0  0  0  0  0
   -2.3946    0.4065    2.2743 H   0  0  0  0  0  0  0  0  0  0  0  0
   -2.9869   -1.9201    3.5675 H   0  0  0  0  0  0  0  0  0  0  0  0
   -2.9757   -3.7386    1.8078 H   0  0  0  0  0  0  0  0  0  0  0  0
   -2.1480   -2.7972   -2.7725 H   0  0  0  0  0  0  0  0  0  0  0  0
    3.9093    1.5506    3.5121 H   0  0  0  0  0  0  0  0  0  0  0  0
    4.3282    1.4659    1.8184 H   0  0  0  0  0  0  0  0  0  0  0  0
  1  2  1  0
  2  3  1  0
  3  4  1  0
  4  5  1  0
  5  6  1  0
  6  7  1  0
  7  8  1  0
  8  9  1  0
  8 10  1  0
 10 11  2  0
 11 12  1  0
 12 13  2  0
 13 14  1  0
 14 15  1  0
 15 16  2  0
 16 17  1  0
 17 18  2  0
  5 19  1  0
 19 20  2  0
 19 21  1  0
 21 22  1  0
 22 23  3  0
  7  2  1  0
 18 10  1  0
 15 11  1  0
  1 24  1  0
  1 25  1  0
  1 26  1  0
  2 27  1  6
  3 28  1  0
  3 29  1  0
  4 30  1  0
  4 31  1  0
  6 32  1  0
  6 33  1  0
  7 34  1  1
  9 35  1  0
  9 36  1  0
  9 37  1  0
 12 38  1  0
 13 39  1  0
 14 40  1  0
 17 41  1  0
 21 42  1  0
 21 43  1  0
M  END
>  <energy_abs>  (35) 
15.830257459739151

>  <SMILES>  (35) 
C[C@@H]1CCN(C[C@@H]1N(C)c2c3cc[nH]c3ncn2)C(=O)CC#N

>  <cluster_no>  (35) 
35

>  <fda_drugs_id>  (35) 
UJLAWZDWDVHWOW-YPMHNXCESA-N

>  <initial_conformation_id>  (35) 
283

>  <minimize_method>  (35) 
MMFF

$$$$

     RDKit          3D

 43 45  0  0  0  0  0  0  0  0999 V2000
    1.5375    0.8734   -3.1234 C   0  0  0  0  0  0  0  0  0  0  0  0
    0.5090    1.7333   -2.3748 C   0  0  2  0  0  0  0  0  0  0  0  0
    1.1520    3.0250   -1.8496 C   0  0  0  0  0  0  0  0  0  0  0  0
    2.1245    2.7791   -0.7027 C   0  0  0  0  0  0  0  0  0  0  0  0
    1.5139    2.0010    0.3729 N   0  0  0  0  0  0  0  0  0  0  0  0
    0.8153    0.7699   -0.0403 C   0  0  0  0  0  0  0  0  0  0  0  0
   -0.1953    0.9873   -1.2044 C   0  0  2  0  0  0  0  0  0  0  0  0
   -0.8149   -0.2731   -1.6925 N   0  0  0  0  0  0  0  0  0  0  0  0
   -1.8731   -0.1381   -2.6959 C   0  0  0  0  0  0  0  0  0  0  0  0
   -1.2460   -1.1325   -0.6644 C   0  0  0  0  0  0  0  0  0  0  0  0
   -2.3111   -0.8865    0.2305 C   0  0  0  0  0  0  0  0  0  0  0  0
   -3.2620    0.1511    0.4631 C   0  0  0  0  0  0  0  0  0  0  0  0
   -4.0500   -0.2255    1.5309 C   0  0  0  0  0  0  0  0  0  0  0  0
   -3.6107   -1.4519    1.9584 N   0  0  0  0  0  0  0  0  0  0  0  0
   -2.5628   -1.8638    1.1822 C   0  0  0  0  0  0  0  0  0  0  0  0
   -1.9100   -3.0217    1.3478 N   0  0  0  0  0  0  0  0  0  0  0  0
   -0.9150   -3.1488    0.4557 C   0  0  0  0  0  0  0  0  0  0  0  0
   -0.5553   -2.2900   -0.5169 N   0  0  0  0  0  0  0  0  0  0  0  0
    1.9449    2.0693    1.7073 C   0  0  0  0  0  0  0  0  0  0  0  0
    1.6267    1.2137    2.5327 O   0  0  0  0  0  0  0  0  0  0  0  0
    2.8024    3.2604    2.0886 C   0  0  0  0  0  0  0  0  0  0  0  0
    3.1168    3.2941    3.5201 C   0  0  0  0  0  0  0  0  0  0  0  0
    3.4054    3.3927    4.6406 N   0  0  0  0  0  0  0  0  0  0  0  0
    2.0163    1.4565   -3.9178 H   0  0  0  0  0  0  0  0  0  0  0  0
    1.0622    0.0100   -3.5991 H   0  0  0  0  0  0  0  0  0  0  0  0
    2.3267    0.4970   -2.4668 H   0  0  0  0  0  0  0  0  0  0  0  0
   -0.2491    2.0359   -3.1085 H   0  0  0  0  0  0  0  0  0  0  0  0
    1.6671    3.5515   -2.6617 H   0  0  0  0  0  0  0  0  0  0  0  0
    0.3550    3.6941   -1.4991 H   0  0  0  0  0  0  0  0  0  0  0  0
    2.4721    3.7468   -0.3331 H   0  0  0  0  0  0  0  0  0  0  0  0
    3.0113    2.2319   -1.0415 H   0  0  0  0  0  0  0  0  0  0  0  0
    0.2895    0.3623    0.8291 H   0  0  0  0  0  0  0  0  0  0  0  0
    1.5829    0.0355   -0.3137 H   0  0  0  0  0  0  0  0  0  0  0  0
   -0.9878    1.6505   -0.8290 H   0  0  0  0  0  0  0  0  0  0  0  0
   -2.6433    0.5773   -2.3887 H   0  0  0  0  0  0  0  0  0  0  0  0
   -1.4531    0.2101   -3.6448 H   0  0  0  0  0  0  0  0  0  0  0  0
   -2.3518   -1.1014   -2.9130 H   0  0  0  0  0  0  0  0  0  0  0  0
   -3.3574    1.0775   -0.0865 H   0  0  0  0  0  0  0  0  0  0  0  0
   -4.8745    0.2712    2.0250 H   0  0  0  0  0  0  0  0  0  0  0  0
   -3.9791   -1.9877    2.7311 H   0  0  0  0  0  0  0  0  0  0  0  0
   -0.3251   -4.0576    0.5250 H   0  0  0  0  0  0  0  0  0  0  0  0
    2.2653    4.1778    1.8250 H   0  0  0  0  0  0  0  0  0  0  0  0
    3.7367    3.2166    1.5189 H   0  0  0  0  0  0  0  0  0  0  0  0
  1  2  1  0
  2  3  1  0
  3  4  1  0
  4  5  1  0
  5  6  1  0
  6  7  1  0
  7  8  1  0
  8  9  1  0
  8 10  1  0
 10 11  2  0
 11 12  1  0
 12 13  2  0
 13 14  1  0
 14 15  1  0
 15 16  2  0
 16 17  1  0
 17 18  2  0
  5 19  1  0
 19 20  2  0
 19 21  1  0
 21 22  1  0
 22 23  3  0
  7  2  1  0
 18 10  1  0
 15 11  1  0
  1 24  1  0
  1 25  1  0
  1 26  1  0
  2 27  1  6
  3 28  1  0
  3 29  1  0
  4 30  1  0
  4 31  1  0
  6 32  1  0
  6 33  1  0
  7 34  1  1
  9 35  1  0
  9 36  1  0
  9 37  1  0
 12 38  1  0
 13 39  1  0
 14 40  1  0
 17 41  1  0
 21 42  1  0
 21 43  1  0
M  END
>  <energy_abs>  (36) 
16.25282931352782

>  <SMILES>  (36) 
C[C@@H]1CCN(C[C@@H]1N(C)c2c3cc[nH]c3ncn2)C(=O)CC#N

>  <cluster_no>  (36) 
36

>  <fda_drugs_id>  (36) 
UJLAWZDWDVHWOW-YPMHNXCESA-N

>  <initial_conformation_id>  (36) 
281

>  <minimize_method>  (36) 
MMFF

$$$$

     RDKit          3D

 43 45  0  0  0  0  0  0  0  0999 V2000
    0.3221    0.8212   -3.4193 C   0  0  0  0  0  0  0  0  0  0  0  0
    0.7222    1.4364   -2.0787 C   0  0  2  0  0  0  0  0  0  0  0  0
    2.2088    1.8078   -2.0377 C   0  0  0  0  0  0  0  0  0  0  0  0
    2.5086    2.6660   -0.8067 C   0  0  0  0  0  0  0  0  0  0  0  0
    1.8289    2.2098    0.4062 N   0  0  0  0  0  0  0  0  0  0  0  0
    1.2849    0.8500    0.3756 C   0  0  0  0  0  0  0  0  0  0  0  0
    0.3092    0.6243   -0.8142 C   0  0  2  0  0  0  0  0  0  0  0  0
    0.0822   -0.8163   -1.0923 N   0  0  0  0  0  0  0  0  0  0  0  0
    1.2437   -1.6848   -1.2938 C   0  0  0  0  0  0  0  0  0  0  0  0
   -0.8451   -1.3835   -0.1926 C   0  0  0  0  0  0  0  0  0  0  0  0
   -2.2263   -1.1004   -0.2447 C   0  0  0  0  0  0  0  0  0  0  0  0
   -3.0925   -0.3228   -1.0680 C   0  0  0  0  0  0  0  0  0  0  0  0
   -4.3768   -0.4659   -0.5855 C   0  0  0  0  0  0  0  0  0  0  0  0
   -4.3232   -1.3105    0.4938 N   0  0  0  0  0  0  0  0  0  0  0  0
   -3.0310   -1.7059    0.7079 C   0  0  0  0  0  0  0  0  0  0  0  0
   -2.6437   -2.5416    1.6807 N   0  0  0  0  0  0  0  0  0  0  0  0
   -1.3209   -2.7603    1.6329 C   0  0  0  0  0  0  0  0  0  0  0  0
   -0.4196   -2.2368    0.7771 N   0  0  0  0  0  0  0  0  0  0  0  0
    1.9812    2.9912    1.5535 C   0  0  0  0  0  0  0  0  0  0  0  0
    2.5995    4.0556    1.5135 O   0  0  0  0  0  0  0  0  0  0  0  0
    1.3468    2.4759    2.8297 C   0  0  0  0  0  0  0  0  0  0  0  0
    1.5004    3.4093    3.9492 C   0  0  0  0  0  0  0  0  0  0  0  0
    1.5826    4.0998    4.8793 N   0  0  0  0  0  0  0  0  0  0  0  0
   -0.7411    0.5615   -3.4304 H   0  0  0  0  0  0  0  0  0  0  0  0
    0.9020   -0.0748   -3.6555 H   0  0  0  0  0  0  0  0  0  0  0  0
    0.4924    1.5381   -4.2304 H   0  0  0  0  0  0  0  0  0  0  0  0
    0.1724    2.3887   -2.0209 H   0  0  0  0  0  0  0  0  0  0  0  0
    2.8232    0.9002   -2.0144 H   0  0  0  0  0  0  0  0  0  0  0  0
    2.5008    2.3600   -2.9387 H   0  0  0  0  0  0  0  0  0  0  0  0
    2.2000    3.7023   -0.9922 H   0  0  0  0  0  0  0  0  0  0  0  0
    3.5879    2.6786   -0.6140 H   0  0  0  0  0  0  0  0  0  0  0  0
    0.7735    0.5996    1.3080 H   0  0  0  0  0  0  0  0  0  0  0  0
    2.1569    0.1896    0.3212 H   0  0  0  0  0  0  0  0  0  0  0  0
   -0.6446    1.0811   -0.5127 H   0  0  0  0  0  0  0  0  0  0  0  0
    0.9282   -2.6521   -1.7032 H   0  0  0  0  0  0  0  0  0  0  0  0
    1.9359   -1.2507   -2.0200 H   0  0  0  0  0  0  0  0  0  0  0  0
    1.8082   -1.8682   -0.3727 H   0  0  0  0  0  0  0  0  0  0  0  0
   -2.8007    0.2706   -1.9245 H   0  0  0  0  0  0  0  0  0  0  0  0
   -5.3184   -0.0504   -0.9195 H   0  0  0  0  0  0  0  0  0  0  0  0
   -5.1047   -1.6182    1.0546 H   0  0  0  0  0  0  0  0  0  0  0  0
   -0.9242   -3.4415    2.3798 H   0  0  0  0  0  0  0  0  0  0  0  0
    1.8161    1.5218    3.0925 H   0  0  0  0  0  0  0  0  0  0  0  0
    0.2790    2.3114    2.6492 H   0  0  0  0  0  0  0  0  0  0  0  0
  1  2  1  0
  2  3  1  0
  3  4  1  0
  4  5  1  0
  5  6  1  0
  6  7  1  0
  7  8  1  0
  8  9  1  0
  8 10  1  0
 10 11  2  0
 11 12  1  0
 12 13  2  0
 13 14  1  0
 14 15  1  0
 15 16  2  0
 16 17  1  0
 17 18  2  0
  5 19  1  0
 19 20  2  0
 19 21  1  0
 21 22  1  0
 22 23  3  0
  7  2  1  0
 18 10  1  0
 15 11  1  0
  1 24  1  0
  1 25  1  0
  1 26  1  0
  2 27  1  1
  3 28  1  0
  3 29  1  0
  4 30  1  0
  4 31  1  0
  6 32  1  0
  6 33  1  0
  7 34  1  1
  9 35  1  0
  9 36  1  0
  9 37  1  0
 12 38  1  0
 13 39  1  0
 14 40  1  0
 17 41  1  0
 21 42  1  0
 21 43  1  0
M  END
>  <energy_abs>  (37) 
14.640051603259863

>  <SMILES>  (37) 
C[C@@H]1CCN(C[C@@H]1N(C)c2c3cc[nH]c3ncn2)C(=O)CC#N

>  <cluster_no>  (37) 
37

>  <fda_drugs_id>  (37) 
UJLAWZDWDVHWOW-YPMHNXCESA-N

>  <initial_conformation_id>  (37) 
275

>  <minimize_method>  (37) 
MMFF

$$$$

     RDKit          3D

 43 45  0  0  0  0  0  0  0  0999 V2000
    0.6924   -0.0018   -2.3929 C   0  0  0  0  0  0  0  0  0  0  0  0
    0.8081    1.0280   -1.2694 C   0  0  2  0  0  0  0  0  0  0  0  0
    2.2737    1.2931   -0.9072 C   0  0  0  0  0  0  0  0  0  0  0  0
    2.4680    2.1286    0.3572 C   0  0  0  0  0  0  0  0  0  0  0  0
    1.2353    2.7428    0.8422 N   0  0  0  0  0  0  0  0  0  0  0  0
    0.1055    1.8268    1.0569 C   0  0  0  0  0  0  0  0  0  0  0  0
   -0.1010    0.7573   -0.0488 C   0  0  2  0  0  0  0  0  0  0  0  0
   -0.0296   -0.6062    0.5271 N   0  0  0  0  0  0  0  0  0  0  0  0
    1.2441   -1.1734    0.9448 C   0  0  0  0  0  0  0  0  0  0  0  0
   -0.9265   -1.5531    0.0138 C   0  0  0  0  0  0  0  0  0  0  0  0
   -2.3313   -1.3915    0.0215 C   0  0  0  0  0  0  0  0  0  0  0  0
   -3.2652   -0.4235    0.5014 C   0  0  0  0  0  0  0  0  0  0  0  0
   -4.5353   -0.8667    0.1968 C   0  0  0  0  0  0  0  0  0  0  0  0
   -4.4103   -2.0765   -0.4347 N   0  0  0  0  0  0  0  0  0  0  0  0
   -3.0883   -2.4146   -0.5310 C   0  0  0  0  0  0  0  0  0  0  0  0
   -2.6401   -3.5567   -1.0684 N   0  0  0  0  0  0  0  0  0  0  0  0
   -1.3034   -3.6326   -0.9919 C   0  0  0  0  0  0  0  0  0  0  0  0
   -0.4454   -2.7254   -0.4862 N   0  0  0  0  0  0  0  0  0  0  0  0
    1.2012    3.9411    1.5607 C   0  0  0  0  0  0  0  0  0  0  0  0
    0.2183    4.2677    2.2322 O   0  0  0  0  0  0  0  0  0  0  0  0
    2.3807    4.8832    1.4730 C   0  0  0  0  0  0  0  0  0  0  0  0
    3.4191    4.4953    2.4246 C   0  0  0  0  0  0  0  0  0  0  0  0
    4.2721    4.1765    3.1445 N   0  0  0  0  0  0  0  0  0  0  0  0
    1.1344   -0.9630   -2.1171 H   0  0  0  0  0  0  0  0  0  0  0  0
   -0.3546   -0.1653   -2.6679 H   0  0  0  0  0  0  0  0  0  0  0  0
    1.2164    0.3514   -3.2881 H   0  0  0  0  0  0  0  0  0  0  0  0
    0.4374    1.9711   -1.7017 H   0  0  0  0  0  0  0  0  0  0  0  0
    2.8411    0.3607   -0.8112 H   0  0  0  0  0  0  0  0  0  0  0  0
    2.7421    1.8213   -1.7490 H   0  0  0  0  0  0  0  0  0  0  0  0
    2.8568    1.5073    1.1718 H   0  0  0  0  0  0  0  0  0  0  0  0
    3.2380    2.8779    0.1612 H   0  0  0  0  0  0  0  0  0  0  0  0
    0.2426    1.3674    2.0441 H   0  0  0  0  0  0  0  0  0  0  0  0
   -0.8131    2.4234    1.1276 H   0  0  0  0  0  0  0  0  0  0  0  0
   -1.1210    0.9249   -0.4157 H   0  0  0  0  0  0  0  0  0  0  0  0
    1.8534   -1.4985    0.0959 H   0  0  0  0  0  0  0  0  0  0  0  0
    1.8191   -0.4503    1.5280 H   0  0  0  0  0  0  0  0  0  0  0  0
    1.0905   -2.0342    1.6075 H   0  0  0  0  0  0  0  0  0  0  0  0
   -3.0298    0.4943    1.0237 H   0  0  0  0  0  0  0  0  0  0  0  0
   -5.5094   -0.4350    0.3848 H   0  0  0  0  0  0  0  0  0  0  0  0
   -5.1633   -2.6614   -0.7669 H   0  0  0  0  0  0  0  0  0  0  0  0
   -0.8540   -4.5382   -1.3876 H   0  0  0  0  0  0  0  0  0  0  0  0
    2.7556    4.9290    0.4464 H   0  0  0  0  0  0  0  0  0  0  0  0
    2.0216    5.8933    1.7036 H   0  0  0  0  0  0  0  0  0  0  0  0
  1  2  1  0
  2  3  1  0
  3  4  1  0
  4  5  1  0
  5  6  1  0
  6  7  1  0
  7  8  1  0
  8  9  1  0
  8 10  1  0
 10 11  2  0
 11 12  1  0
 12 13  2  0
 13 14  1  0
 14 15  1  0
 15 16  2  0
 16 17  1  0
 17 18  2  0
  5 19  1  0
 19 20  2  0
 19 21  1  0
 21 22  1  0
 22 23  3  0
  7  2  1  0
 18 10  1  0
 15 11  1  0
  1 24  1  0
  1 25  1  0
  1 26  1  0
  2 27  1  6
  3 28  1  0
  3 29  1  0
  4 30  1  0
  4 31  1  0
  6 32  1  0
  6 33  1  0
  7 34  1  6
  9 35  1  0
  9 36  1  0
  9 37  1  0
 12 38  1  0
 13 39  1  0
 14 40  1  0
 17 41  1  0
 21 42  1  0
 21 43  1  0
M  END
>  <energy_abs>  (38) 
18.09848035010059

>  <SMILES>  (38) 
C[C@@H]1CCN(C[C@@H]1N(C)c2c3cc[nH]c3ncn2)C(=O)CC#N

>  <cluster_no>  (38) 
38

>  <fda_drugs_id>  (38) 
UJLAWZDWDVHWOW-YPMHNXCESA-N

>  <initial_conformation_id>  (38) 
273

>  <minimize_method>  (38) 
MMFF

$$$$

     RDKit          3D

 43 45  0  0  0  0  0  0  0  0999 V2000
    1.7161   -0.1140   -2.2485 C   0  0  0  0  0  0  0  0  0  0  0  0
    0.6995    0.7114   -1.4540 C   0  0  2  0  0  0  0  0  0  0  0  0
    0.8507    2.2127   -1.7979 C   0  0  0  0  0  0  0  0  0  0  0  0
    2.1007    2.8327   -1.1729 C   0  0  0  0  0  0  0  0  0  0  0  0
    2.0939    2.6308    0.2752 N   0  0  0  0  0  0  0  0  0  0  0  0
    2.0235    1.2209    0.6832 C   0  0  0  0  0  0  0  0  0  0  0  0
    0.7654    0.5297    0.0933 C   0  0  2  0  0  0  0  0  0  0  0  0
    0.6023   -0.8606    0.5804 N   0  0  0  0  0  0  0  0  0  0  0  0
    1.7518   -1.7581    0.6506 C   0  0  0  0  0  0  0  0  0  0  0  0
   -0.5739   -1.5047    0.1583 C   0  0  0  0  0  0  0  0  0  0  0  0
   -1.8765   -1.0435    0.4571 C   0  0  0  0  0  0  0  0  0  0  0  0
   -2.4596    0.0154    1.2160 C   0  0  0  0  0  0  0  0  0  0  0  0
   -3.8312   -0.0862    1.1100 C   0  0  0  0  0  0  0  0  0  0  0  0
   -4.1056   -1.1774    0.3294 N   0  0  0  0  0  0  0  0  0  0  0  0
   -2.9377   -1.7754   -0.0572 C   0  0  0  0  0  0  0  0  0  0  0  0
   -2.8724   -2.8863   -0.8033 N   0  0  0  0  0  0  0  0  0  0  0  0
   -1.6002   -3.2603   -0.9997 C   0  0  0  0  0  0  0  0  0  0  0  0
   -0.4776   -2.6537   -0.5679 N   0  0  0  0  0  0  0  0  0  0  0  0
    1.8831    3.7278    1.1033 C   0  0  0  0  0  0  0  0  0  0  0  0
    1.7585    4.8693    0.6513 O   0  0  0  0  0  0  0  0  0  0  0  0
    1.8318    3.5204    2.6000 C   0  0  0  0  0  0  0  0  0  0  0  0
    0.4810    3.1467    3.0117 C   0  0  0  0  0  0  0  0  0  0  0  0
   -0.5812    2.8207    3.3476 N   0  0  0  0  0  0  0  0  0  0  0  0
    2.7346   -0.0045   -1.8664 H   0  0  0  0  0  0  0  0  0  0  0  0
    1.4547   -1.1754   -2.2329 H   0  0  0  0  0  0  0  0  0  0  0  0
    1.7212    0.1869   -3.3021 H   0  0  0  0  0  0  0  0  0  0  0  0
   -0.2951    0.4075   -1.8056 H   0  0  0  0  0  0  0  0  0  0  0  0
    0.8703    2.3560   -2.8846 H   0  0  0  0  0  0  0  0  0  0  0  0
   -0.0343    2.7462   -1.4267 H   0  0  0  0  0  0  0  0  0  0  0  0
    3.0100    2.3672   -1.5692 H   0  0  0  0  0  0  0  0  0  0  0  0
    2.1500    3.8960   -1.4272 H   0  0  0  0  0  0  0  0  0  0  0  0
    2.0180    1.1189    1.7700 H   0  0  0  0  0  0  0  0  0  0  0  0
    2.9442    0.7469    0.3253 H   0  0  0  0  0  0  0  0  0  0  0  0
   -0.0737    1.1118    0.4946 H   0  0  0  0  0  0  0  0  0  0  0  0
    2.5691   -1.3001    1.2159 H   0  0  0  0  0  0  0  0  0  0  0  0
    1.4998   -2.6765    1.1959 H   0  0  0  0  0  0  0  0  0  0  0  0
    2.1366   -2.0367   -0.3336 H   0  0  0  0  0  0  0  0  0  0  0  0
   -1.9342    0.7659    1.7926 H   0  0  0  0  0  0  0  0  0  0  0  0
   -4.6266    0.5137    1.5322 H   0  0  0  0  0  0  0  0  0  0  0  0
   -5.0212   -1.5224    0.0809 H   0  0  0  0  0  0  0  0  0  0  0  0
   -1.4542   -4.1650   -1.5817 H   0  0  0  0  0  0  0  0  0  0  0  0
    2.1205    4.4638    3.0787 H   0  0  0  0  0  0  0  0  0  0  0  0
    2.5808    2.7889    2.9152 H   0  0  0  0  0  0  0  0  0  0  0  0
  1  2  1  0
  2  3  1  0
  3  4  1  0
  4  5  1  0
  5  6  1  0
  6  7  1  0
  7  8  1  0
  8  9  1  0
  8 10  1  0
 10 11  2  0
 11 12  1  0
 12 13  2  0
 13 14  1  0
 14 15  1  0
 15 16  2  0
 16 17  1  0
 17 18  2  0
  5 19  1  0
 19 20  2  0
 19 21  1  0
 21 22  1  0
 22 23  3  0
  7  2  1  0
 18 10  1  0
 15 11  1  0
  1 24  1  0
  1 25  1  0
  1 26  1  0
  2 27  1  6
  3 28  1  0
  3 29  1  0
  4 30  1  0
  4 31  1  0
  6 32  1  0
  6 33  1  0
  7 34  1  1
  9 35  1  0
  9 36  1  0
  9 37  1  0
 12 38  1  0
 13 39  1  0
 14 40  1  0
 17 41  1  0
 21 42  1  0
 21 43  1  0
M  END
>  <energy_abs>  (39) 
12.77641915177259

>  <SMILES>  (39) 
C[C@@H]1CCN(C[C@@H]1N(C)c2c3cc[nH]c3ncn2)C(=O)CC#N

>  <cluster_no>  (39) 
39

>  <fda_drugs_id>  (39) 
UJLAWZDWDVHWOW-YPMHNXCESA-N

>  <initial_conformation_id>  (39) 
272

>  <minimize_method>  (39) 
MMFF

$$$$

     RDKit          3D

 43 45  0  0  0  0  0  0  0  0999 V2000
    2.0176   -0.9752   -1.6236 C   0  0  0  0  0  0  0  0  0  0  0  0
    1.4102    0.3986   -1.3227 C   0  0  2  0  0  0  0  0  0  0  0  0
    2.5410    1.4513   -1.3025 C   0  0  0  0  0  0  0  0  0  0  0  0
    2.1964    2.6785   -0.4647 C   0  0  0  0  0  0  0  0  0  0  0  0
    1.9274    2.3157    0.9289 N   0  0  0  0  0  0  0  0  0  0  0  0
    1.3597    0.9798    1.1669 C   0  0  0  0  0  0  0  0  0  0  0  0
    0.5366    0.4707   -0.0379 C   0  0  2  0  0  0  0  0  0  0  0  0
   -0.2129   -0.7692    0.2373 N   0  0  0  0  0  0  0  0  0  0  0  0
    0.3367   -1.8066    1.0884 C   0  0  0  0  0  0  0  0  0  0  0  0
   -1.4498   -0.9353   -0.3815 C   0  0  0  0  0  0  0  0  0  0  0  0
   -2.4375   -1.8980   -0.0406 C   0  0  0  0  0  0  0  0  0  0  0  0
   -2.6213   -2.9227    0.9412 C   0  0  0  0  0  0  0  0  0  0  0  0
   -3.8470   -3.5187    0.7291 C   0  0  0  0  0  0  0  0  0  0  0  0
   -4.4271   -2.8921   -0.3392 N   0  0  0  0  0  0  0  0  0  0  0  0
   -3.5988   -1.9092   -0.8056 C   0  0  0  0  0  0  0  0  0  0  0  0
   -3.9072   -1.1111   -1.8352 N   0  0  0  0  0  0  0  0  0  0  0  0
   -2.9292   -0.2296   -2.0689 C   0  0  0  0  0  0  0  0  0  0  0  0
   -1.7592   -0.0994   -1.4176 N   0  0  0  0  0  0  0  0  0  0  0  0
    2.1940    3.1243    2.0330 C   0  0  0  0  0  0  0  0  0  0  0  0
    2.0564    2.7009    3.1807 O   0  0  0  0  0  0  0  0  0  0  0  0
    2.6766    4.5324    1.7480 C   0  0  0  0  0  0  0  0  0  0  0  0
    2.6073    5.3950    2.9306 C   0  0  0  0  0  0  0  0  0  0  0  0
    2.5724    6.1385    3.8220 N   0  0  0  0  0  0  0  0  0  0  0  0
    2.6641   -1.3145   -0.8081 H   0  0  0  0  0  0  0  0  0  0  0  0
    2.6251   -0.9341   -2.5347 H   0  0  0  0  0  0  0  0  0  0  0  0
    1.2425   -1.7295   -1.7899 H   0  0  0  0  0  0  0  0  0  0  0  0
    0.7552    0.6406   -2.1709 H   0  0  0  0  0  0  0  0  0  0  0  0
    3.4592    1.0048   -0.8978 H   0  0  0  0  0  0  0  0  0  0  0  0
    2.7709    1.7569   -2.3303 H   0  0  0  0  0  0  0  0  0  0  0  0
    1.3011    3.1763   -0.8543 H   0  0  0  0  0  0  0  0  0  0  0  0
    3.0226    3.3930   -0.5144 H   0  0  0  0  0  0  0  0  0  0  0  0
    0.7324    1.0040    2.0658 H   0  0  0  0  0  0  0  0  0  0  0  0
    2.2087    0.3200    1.3795 H   0  0  0  0  0  0  0  0  0  0  0  0
   -0.1943    1.2775   -0.2031 H   0  0  0  0  0  0  0  0  0  0  0  0
   -0.1155   -1.7662    2.0843 H   0  0  0  0  0  0  0  0  0  0  0  0
    0.1912   -2.8022    0.6552 H   0  0  0  0  0  0  0  0  0  0  0  0
    1.4176   -1.7022    1.2192 H   0  0  0  0  0  0  0  0  0  0  0  0
   -1.9403   -3.2007    1.7327 H   0  0  0  0  0  0  0  0  0  0  0  0
   -4.3532   -4.3220    1.2478 H   0  0  0  0  0  0  0  0  0  0  0  0
   -5.3335   -3.0936   -0.7357 H   0  0  0  0  0  0  0  0  0  0  0  0
   -3.0975    0.4668   -2.8841 H   0  0  0  0  0  0  0  0  0  0  0  0
    2.0602    4.9729    0.9571 H   0  0  0  0  0  0  0  0  0  0  0  0
    3.7122    4.4754    1.3964 H   0  0  0  0  0  0  0  0  0  0  0  0
  1  2  1  0
  2  3  1  0
  3  4  1  0
  4  5  1  0
  5  6  1  0
  6  7  1  0
  7  8  1  0
  8  9  1  0
  8 10  1  0
 10 11  2  0
 11 12  1  0
 12 13  2  0
 13 14  1  0
 14 15  1  0
 15 16  2  0
 16 17  1  0
 17 18  2  0
  5 19  1  0
 19 20  2  0
 19 21  1  0
 21 22  1  0
 22 23  3  0
  7  2  1  0
 18 10  1  0
 15 11  1  0
  1 24  1  0
  1 25  1  0
  1 26  1  0
  2 27  1  6
  3 28  1  0
  3 29  1  0
  4 30  1  0
  4 31  1  0
  6 32  1  0
  6 33  1  0
  7 34  1  6
  9 35  1  0
  9 36  1  0
  9 37  1  0
 12 38  1  0
 13 39  1  0
 14 40  1  0
 17 41  1  0
 21 42  1  0
 21 43  1  0
M  END
>  <energy_abs>  (40) 
16.847019507351156

>  <SMILES>  (40) 
C[C@@H]1CCN(C[C@@H]1N(C)c2c3cc[nH]c3ncn2)C(=O)CC#N

>  <cluster_no>  (40) 
40

>  <fda_drugs_id>  (40) 
UJLAWZDWDVHWOW-YPMHNXCESA-N

>  <initial_conformation_id>  (40) 
269

>  <minimize_method>  (40) 
MMFF

$$$$

     RDKit          3D

 43 45  0  0  0  0  0  0  0  0999 V2000
    3.2791   -1.0874   -0.9025 C   0  0  0  0  0  0  0  0  0  0  0  0
    2.2810   -0.1548   -1.6025 C   0  0  2  0  0  0  0  0  0  0  0  0
    2.8603    1.2603   -1.7528 C   0  0  0  0  0  0  0  0  0  0  0  0
    2.9851    1.9949   -0.4232 C   0  0  0  0  0  0  0  0  0  0  0  0
    1.7392    1.9869    0.3409 N   0  0  0  0  0  0  0  0  0  0  0  0
    1.0596    0.6867    0.4602 C   0  0  0  0  0  0  0  0  0  0  0  0
    0.9021   -0.0651   -0.8933 C   0  0  2  0  0  0  0  0  0  0  0  0
    0.2867   -1.4092   -0.7324 N   0  0  0  0  0  0  0  0  0  0  0  0
    0.0662   -2.1825   -1.9571 C   0  0  0  0  0  0  0  0  0  0  0  0
   -0.8858   -1.3886    0.0481 C   0  0  0  0  0  0  0  0  0  0  0  0
   -2.1367   -0.8605   -0.3432 C   0  0  0  0  0  0  0  0  0  0  0  0
   -2.6897   -0.2261   -1.4949 C   0  0  0  0  0  0  0  0  0  0  0  0
   -4.0108    0.0663   -1.2268 C   0  0  0  0  0  0  0  0  0  0  0  0
   -4.2818   -0.3643    0.0461 N   0  0  0  0  0  0  0  0  0  0  0  0
   -3.1569   -0.9153    0.5955 C   0  0  0  0  0  0  0  0  0  0  0  0
   -3.0894   -1.4116    1.8377 N   0  0  0  0  0  0  0  0  0  0  0  0
   -1.8614   -1.8779    2.1099 C   0  0  0  0  0  0  0  0  0  0  0  0
   -0.7785   -1.8757    1.3102 N   0  0  0  0  0  0  0  0  0  0  0  0
    1.5841    3.0084    1.2926 C   0  0  0  0  0  0  0  0  0  0  0  0
    2.3857    3.9406    1.3652 O   0  0  0  0  0  0  0  0  0  0  0  0
    0.3770    2.9186    2.2078 C   0  0  0  0  0  0  0  0  0  0  0  0
    0.2475    4.0888    3.0813 C   0  0  0  0  0  0  0  0  0  0  0  0
    0.0795    4.9860    3.7994 N   0  0  0  0  0  0  0  0  0  0  0  0
    4.2318   -1.0994   -1.4432 H   0  0  0  0  0  0  0  0  0  0  0  0
    2.9099   -2.1171   -0.8748 H   0  0  0  0  0  0  0  0  0  0  0  0
    3.4874   -0.7837    0.1271 H   0  0  0  0  0  0  0  0  0  0  0  0
    2.1337   -0.5452   -2.6176 H   0  0  0  0  0  0  0  0  0  0  0  0
    2.2021    1.8386   -2.4146 H   0  0  0  0  0  0  0  0  0  0  0  0
    3.8397    1.2208   -2.2440 H   0  0  0  0  0  0  0  0  0  0  0  0
    3.2974    3.0268   -0.6199 H   0  0  0  0  0  0  0  0  0  0  0  0
    3.7603    1.5426    0.2062 H   0  0  0  0  0  0  0  0  0  0  0  0
    0.0719    0.8511    0.8949 H   0  0  0  0  0  0  0  0  0  0  0  0
    1.6239    0.0881    1.1855 H   0  0  0  0  0  0  0  0  0  0  0  0
    0.2498    0.5460   -1.5341 H   0  0  0  0  0  0  0  0  0  0  0  0
   -0.4287   -1.5917   -2.7347 H   0  0  0  0  0  0  0  0  0  0  0  0
    1.0225   -2.5295   -2.3612 H   0  0  0  0  0  0  0  0  0  0  0  0
   -0.5266   -3.0858   -1.7663 H   0  0  0  0  0  0  0  0  0  0  0  0
   -2.1787   -0.0026   -2.4217 H   0  0  0  0  0  0  0  0  0  0  0  0
   -4.7768    0.5401   -1.8270 H   0  0  0  0  0  0  0  0  0  0  0  0
   -5.1652   -0.2912    0.5306 H   0  0  0  0  0  0  0  0  0  0  0  0
   -1.7195   -2.3045    3.0982 H   0  0  0  0  0  0  0  0  0  0  0  0
    0.4707    2.0194    2.8259 H   0  0  0  0  0  0  0  0  0  0  0  0
   -0.5255    2.8383    1.5923 H   0  0  0  0  0  0  0  0  0  0  0  0
  1  2  1  0
  2  3  1  0
  3  4  1  0
  4  5  1  0
  5  6  1  0
  6  7  1  0
  7  8  1  0
  8  9  1  0
  8 10  1  0
 10 11  2  0
 11 12  1  0
 12 13  2  0
 13 14  1  0
 14 15  1  0
 15 16  2  0
 16 17  1  0
 17 18  2  0
  5 19  1  0
 19 20  2  0
 19 21  1  0
 21 22  1  0
 22 23  3  0
  7  2  1  0
 18 10  1  0
 15 11  1  0
  1 24  1  0
  1 25  1  0
  1 26  1  0
  2 27  1  6
  3 28  1  0
  3 29  1  0
  4 30  1  0
  4 31  1  0
  6 32  1  0
  6 33  1  0
  7 34  1  6
  9 35  1  0
  9 36  1  0
  9 37  1  0
 12 38  1  0
 13 39  1  0
 14 40  1  0
 17 41  1  0
 21 42  1  0
 21 43  1  0
M  END
>  <energy_abs>  (41) 
13.769659364802441

>  <SMILES>  (41) 
C[C@@H]1CCN(C[C@@H]1N(C)c2c3cc[nH]c3ncn2)C(=O)CC#N

>  <cluster_no>  (41) 
41

>  <fda_drugs_id>  (41) 
UJLAWZDWDVHWOW-YPMHNXCESA-N

>  <initial_conformation_id>  (41) 
268

>  <minimize_method>  (41) 
MMFF

$$$$

     RDKit          3D

 43 45  0  0  0  0  0  0  0  0999 V2000
   -0.2187    2.4192   -1.9495 C   0  0  0  0  0  0  0  0  0  0  0  0
   -0.5776    1.9980   -0.5174 C   0  0  2  0  0  0  0  0  0  0  0  0
   -0.1632    3.0792    0.4919 C   0  0  0  0  0  0  0  0  0  0  0  0
    1.3489    3.1958    0.6499 C   0  0  0  0  0  0  0  0  0  0  0  0
    1.9773    1.9059    0.9347 N   0  0  0  0  0  0  0  0  0  0  0  0
    1.5764    0.7873    0.0666 C   0  0  0  0  0  0  0  0  0  0  0  0
    0.0416    0.6355   -0.0896 C   0  0  2  0  0  0  0  0  0  0  0  0
   -0.3333   -0.4443   -1.0387 N   0  0  0  0  0  0  0  0  0  0  0  0
    0.4131   -1.7013   -0.9726 C   0  0  0  0  0  0  0  0  0  0  0  0
   -1.7176   -0.7210   -1.0377 C   0  0  0  0  0  0  0  0  0  0  0  0
   -2.4533   -1.2695    0.0377 C   0  0  0  0  0  0  0  0  0  0  0  0
   -2.1861   -1.7167    1.3663 C   0  0  0  0  0  0  0  0  0  0  0  0
   -3.3729   -2.1559    1.9150 C   0  0  0  0  0  0  0  0  0  0  0  0
   -4.3517   -1.9949    0.9690 N   0  0  0  0  0  0  0  0  0  0  0  0
   -3.8116   -1.4622   -0.1692 C   0  0  0  0  0  0  0  0  0  0  0  0
   -4.5102   -1.1883   -1.2789 N   0  0  0  0  0  0  0  0  0  0  0  0
   -3.7180   -0.6816   -2.2367 C   0  0  0  0  0  0  0  0  0  0  0  0
   -2.3954   -0.4393   -2.1792 N   0  0  0  0  0  0  0  0  0  0  0  0
    3.2153    1.7862    1.5847 C   0  0  0  0  0  0  0  0  0  0  0  0
    3.8582    0.7368    1.5477 O   0  0  0  0  0  0  0  0  0  0  0  0
    3.7084    2.9995    2.3494 C   0  0  0  0  0  0  0  0  0  0  0  0
    4.9616    2.7411    3.0644 C   0  0  0  0  0  0  0  0  0  0  0  0
    5.9508    2.6089    3.6581 N   0  0  0  0  0  0  0  0  0  0  0  0
    0.8602    2.5087   -2.1033 H   0  0  0  0  0  0  0  0  0  0  0  0
   -0.5985    1.7022   -2.6832 H   0  0  0  0  0  0  0  0  0  0  0  0
   -0.6683    3.3903   -2.1844 H   0  0  0  0  0  0  0  0  0  0  0  0
   -1.6719    1.9236   -0.4722 H   0  0  0  0  0  0  0  0  0  0  0  0
   -0.6016    2.8319    1.4678 H   0  0  0  0  0  0  0  0  0  0  0  0
   -0.5782    4.0514    0.2007 H   0  0  0  0  0  0  0  0  0  0  0  0
    1.5578    3.9105    1.4499 H   0  0  0  0  0  0  0  0  0  0  0  0
    1.8141    3.5927   -0.2594 H   0  0  0  0  0  0  0  0  0  0  0  0
    1.9829   -0.1406    0.4837 H   0  0  0  0  0  0  0  0  0  0  0  0
    2.0641    0.9338   -0.9048 H   0  0  0  0  0  0  0  0  0  0  0  0
   -0.3417    0.3947    0.9114 H   0  0  0  0  0  0  0  0  0  0  0  0
    1.4416   -1.5431   -1.3142 H   0  0  0  0  0  0  0  0  0  0  0  0
    0.4496   -2.1061    0.0445 H   0  0  0  0  0  0  0  0  0  0  0  0
   -0.0133   -2.4614   -1.6394 H   0  0  0  0  0  0  0  0  0  0  0  0
   -1.2275   -1.7192    1.8678 H   0  0  0  0  0  0  0  0  0  0  0  0
   -3.6037   -2.5687    2.8883 H   0  0  0  0  0  0  0  0  0  0  0  0
   -5.3289   -2.2291    1.0685 H   0  0  0  0  0  0  0  0  0  0  0  0
   -4.2024   -0.4349   -3.1764 H   0  0  0  0  0  0  0  0  0  0  0  0
    3.8633    3.8211    1.6421 H   0  0  0  0  0  0  0  0  0  0  0  0
    2.9415    3.2920    3.0746 H   0  0  0  0  0  0  0  0  0  0  0  0
  1  2  1  0
  2  3  1  0
  3  4  1  0
  4  5  1  0
  5  6  1  0
  6  7  1  0
  7  8  1  0
  8  9  1  0
  8 10  1  0
 10 11  2  0
 11 12  1  0
 12 13  2  0
 13 14  1  0
 14 15  1  0
 15 16  2  0
 16 17  1  0
 17 18  2  0
  5 19  1  0
 19 20  2  0
 19 21  1  0
 21 22  1  0
 22 23  3  0
  7  2  1  0
 18 10  1  0
 15 11  1  0
  1 24  1  0
  1 25  1  0
  1 26  1  0
  2 27  1  6
  3 28  1  0
  3 29  1  0
  4 30  1  0
  4 31  1  0
  6 32  1  0
  6 33  1  0
  7 34  1  1
  9 35  1  0
  9 36  1  0
  9 37  1  0
 12 38  1  0
 13 39  1  0
 14 40  1  0
 17 41  1  0
 21 42  1  0
 21 43  1  0
M  END
>  <energy_abs>  (42) 
16.00553389600241

>  <SMILES>  (42) 
C[C@@H]1CCN(C[C@@H]1N(C)c2c3cc[nH]c3ncn2)C(=O)CC#N

>  <cluster_no>  (42) 
42

>  <fda_drugs_id>  (42) 
UJLAWZDWDVHWOW-YPMHNXCESA-N

>  <initial_conformation_id>  (42) 
256

>  <minimize_method>  (42) 
MMFF

$$$$

     RDKit          3D

 43 45  0  0  0  0  0  0  0  0999 V2000
   -1.6384    2.6504   -0.9021 C   0  0  0  0  0  0  0  0  0  0  0  0
   -0.3408    2.3149   -0.1672 C   0  0  2  0  0  0  0  0  0  0  0  0
    0.8790    2.8723   -0.9101 C   0  0  0  0  0  0  0  0  0  0  0  0
    2.2219    2.3806   -0.3724 C   0  0  0  0  0  0  0  0  0  0  0  0
    2.1148    1.6859    0.9058 N   0  0  0  0  0  0  0  0  0  0  0  0
    1.1560    0.5726    0.9584 C   0  0  0  0  0  0  0  0  0  0  0  0
   -0.2000    0.8328    0.2497 C   0  0  2  0  0  0  0  0  0  0  0  0
   -0.4288   -0.1690   -0.8184 N   0  0  0  0  0  0  0  0  0  0  0  0
    0.3138   -0.1118   -2.0682 C   0  0  0  0  0  0  0  0  0  0  0  0
   -1.7410   -0.6403   -0.9652 C   0  0  0  0  0  0  0  0  0  0  0  0
   -2.4754   -1.2603    0.0721 C   0  0  0  0  0  0  0  0  0  0  0  0
   -2.2400   -1.6477    1.4262 C   0  0  0  0  0  0  0  0  0  0  0  0
   -3.3907   -2.2349    1.9093 C   0  0  0  0  0  0  0  0  0  0  0  0
   -4.3119   -2.2351    0.8946 N   0  0  0  0  0  0  0  0  0  0  0  0
   -3.7680   -1.6677   -0.2250 C   0  0  0  0  0  0  0  0  0  0  0  0
   -4.4067   -1.5509   -1.3965 N   0  0  0  0  0  0  0  0  0  0  0  0
   -3.6157   -0.9892   -2.3223 C   0  0  0  0  0  0  0  0  0  0  0  0
   -2.3503   -0.5489   -2.1803 N   0  0  0  0  0  0  0  0  0  0  0  0
    3.1307    1.6810    1.8725 C   0  0  0  0  0  0  0  0  0  0  0  0
    3.1430    0.8495    2.7806 O   0  0  0  0  0  0  0  0  0  0  0  0
    4.1954    2.7537    1.7568 C   0  0  0  0  0  0  0  0  0  0  0  0
    5.1154    2.7575    2.8981 C   0  0  0  0  0  0  0  0  0  0  0  0
    5.8799    2.8231    3.7696 N   0  0  0  0  0  0  0  0  0  0  0  0
   -2.5078    2.2764   -0.3518 H   0  0  0  0  0  0  0  0  0  0  0  0
   -1.7515    3.7360   -0.9979 H   0  0  0  0  0  0  0  0  0  0  0  0
   -1.6593    2.2322   -1.9121 H   0  0  0  0  0  0  0  0  0  0  0  0
   -0.3902    2.8771    0.7789 H   0  0  0  0  0  0  0  0  0  0  0  0
    0.8530    3.9679   -0.8326 H   0  0  0  0  0  0  0  0  0  0  0  0
    0.8263    2.6662   -1.9849 H   0  0  0  0  0  0  0  0  0  0  0  0
    2.9043    3.2317   -0.3088 H   0  0  0  0  0  0  0  0  0  0  0  0
    2.6853    1.6808   -1.0768 H   0  0  0  0  0  0  0  0  0  0  0  0
    0.9502    0.3433    2.0117 H   0  0  0  0  0  0  0  0  0  0  0  0
    1.6627   -0.3113    0.5508 H   0  0  0  0  0  0  0  0  0  0  0  0
   -0.9578    0.6869    1.0293 H   0  0  0  0  0  0  0  0  0  0  0  0
    0.2486   -1.0657   -2.6065 H   0  0  0  0  0  0  0  0  0  0  0  0
   -0.0459    0.6812   -2.7309 H   0  0  0  0  0  0  0  0  0  0  0  0
    1.3780    0.0488   -1.8805 H   0  0  0  0  0  0  0  0  0  0  0  0
   -1.3213   -1.5184    1.9830 H   0  0  0  0  0  0  0  0  0  0  0  0
   -3.6272   -2.6598    2.8759 H   0  0  0  0  0  0  0  0  0  0  0  0
   -5.2480   -2.6114    0.9335 H   0  0  0  0  0  0  0  0  0  0  0  0
   -4.0480   -0.8733   -3.3114 H   0  0  0  0  0  0  0  0  0  0  0  0
    4.7653    2.5819    0.8375 H   0  0  0  0  0  0  0  0  0  0  0  0
    3.7054    3.7315    1.6966 H   0  0  0  0  0  0  0  0  0  0  0  0
  1  2  1  0
  2  3  1  0
  3  4  1  0
  4  5  1  0
  5  6  1  0
  6  7  1  0
  7  8  1  0
  8  9  1  0
  8 10  1  0
 10 11  2  0
 11 12  1  0
 12 13  2  0
 13 14  1  0
 14 15  1  0
 15 16  2  0
 16 17  1  0
 17 18  2  0
  5 19  1  0
 19 20  2  0
 19 21  1  0
 21 22  1  0
 22 23  3  0
  7  2  1  0
 18 10  1  0
 15 11  1  0
  1 24  1  0
  1 25  1  0
  1 26  1  0
  2 27  1  1
  3 28  1  0
  3 29  1  0
  4 30  1  0
  4 31  1  0
  6 32  1  0
  6 33  1  0
  7 34  1  1
  9 35  1  0
  9 36  1  0
  9 37  1  0
 12 38  1  0
 13 39  1  0
 14 40  1  0
 17 41  1  0
 21 42  1  0
 21 43  1  0
M  END
>  <energy_abs>  (43) 
18.83446072716228

>  <SMILES>  (43) 
C[C@@H]1CCN(C[C@@H]1N(C)c2c3cc[nH]c3ncn2)C(=O)CC#N

>  <cluster_no>  (43) 
43

>  <fda_drugs_id>  (43) 
UJLAWZDWDVHWOW-YPMHNXCESA-N

>  <initial_conformation_id>  (43) 
255

>  <minimize_method>  (43) 
MMFF

$$$$

     RDKit          3D

 43 45  0  0  0  0  0  0  0  0999 V2000
   -1.4435    2.8153   -1.7160 C   0  0  0  0  0  0  0  0  0  0  0  0
   -0.1992    2.7394   -0.8308 C   0  0  2  0  0  0  0  0  0  0  0  0
    1.0405    2.3646   -1.6555 C   0  0  0  0  0  0  0  0  0  0  0  0
    2.3098    2.4543   -0.8083 C   0  0  0  0  0  0  0  0  0  0  0  0
    2.2041    1.7927    0.4911 N   0  0  0  0  0  0  0  0  0  0  0  0
    0.9741    1.0311    0.7410 C   0  0  0  0  0  0  0  0  0  0  0  0
   -0.2993    1.8741    0.4593 C   0  0  2  0  0  0  0  0  0  0  0  0
   -1.5485    1.1030    0.6263 N   0  0  0  0  0  0  0  0  0  0  0  0
   -2.6432    1.7483    1.3355 C   0  0  0  0  0  0  0  0  0  0  0  0
   -1.7813   -0.0753   -0.0727 C   0  0  0  0  0  0  0  0  0  0  0  0
   -2.8429   -0.9901    0.1636 C   0  0  0  0  0  0  0  0  0  0  0  0
   -3.9326   -1.1306    1.0802 C   0  0  0  0  0  0  0  0  0  0  0  0
   -4.6190   -2.2864    0.7714 C   0  0  0  0  0  0  0  0  0  0  0  0
   -3.9872   -2.8656   -0.2944 N   0  0  0  0  0  0  0  0  0  0  0  0
   -2.9118   -2.1059   -0.6633 C   0  0  0  0  0  0  0  0  0  0  0  0
   -2.0867   -2.4314   -1.6656 N   0  0  0  0  0  0  0  0  0  0  0  0
   -1.1136   -1.5250   -1.8002 C   0  0  0  0  0  0  0  0  0  0  0  0
   -0.9182   -0.4081   -1.0743 N   0  0  0  0  0  0  0  0  0  0  0  0
    3.3497    1.7635    1.2868 C   0  0  0  0  0  0  0  0  0  0  0  0
    4.3665    2.3729    0.9526 O   0  0  0  0  0  0  0  0  0  0  0  0
    3.2762    0.9644    2.5716 C   0  0  0  0  0  0  0  0  0  0  0  0
    4.5407    0.9745    3.3128 C   0  0  0  0  0  0  0  0  0  0  0  0
    5.5078    0.9388    3.9549 N   0  0  0  0  0  0  0  0  0  0  0  0
   -1.2956    3.5548   -2.5114 H   0  0  0  0  0  0  0  0  0  0  0  0
   -1.6663    1.8633   -2.2041 H   0  0  0  0  0  0  0  0  0  0  0  0
   -2.3204    3.1330   -1.1444 H   0  0  0  0  0  0  0  0  0  0  0  0
   -0.0299    3.7718   -0.4875 H   0  0  0  0  0  0  0  0  0  0  0  0
    1.1423    3.0305   -2.5208 H   0  0  0  0  0  0  0  0  0  0  0  0
    0.9333    1.3493   -2.0550 H   0  0  0  0  0  0  0  0  0  0  0  0
    2.5622    3.5053   -0.6210 H   0  0  0  0  0  0  0  0  0  0  0  0
    3.1510    2.0121   -1.3555 H   0  0  0  0  0  0  0  0  0  0  0  0
    0.9331    0.6756    1.7741 H   0  0  0  0  0  0  0  0  0  0  0  0
    1.0521    0.1366    0.1182 H   0  0  0  0  0  0  0  0  0  0  0  0
   -0.2908    2.6120    1.2769 H   0  0  0  0  0  0  0  0  0  0  0  0
   -2.7895    1.2823    2.3148 H   0  0  0  0  0  0  0  0  0  0  0  0
   -2.4363    2.8092    1.5175 H   0  0  0  0  0  0  0  0  0  0  0  0
   -3.5765    1.7156    0.7627 H   0  0  0  0  0  0  0  0  0  0  0  0
   -4.1958   -0.4672    1.8914 H   0  0  0  0  0  0  0  0  0  0  0  0
   -5.4911   -2.7446    1.2192 H   0  0  0  0  0  0  0  0  0  0  0  0
   -4.2453   -3.7285   -0.7511 H   0  0  0  0  0  0  0  0  0  0  0  0
   -0.3912   -1.7105   -2.5888 H   0  0  0  0  0  0  0  0  0  0  0  0
    2.4899    1.3914    3.2033 H   0  0  0  0  0  0  0  0  0  0  0  0
    3.0153   -0.0710    2.3276 H   0  0  0  0  0  0  0  0  0  0  0  0
  1  2  1  0
  2  3  1  0
  3  4  1  0
  4  5  1  0
  5  6  1  0
  6  7  1  0
  7  8  1  0
  8  9  1  0
  8 10  1  0
 10 11  2  0
 11 12  1  0
 12 13  2  0
 13 14  1  0
 14 15  1  0
 15 16  2  0
 16 17  1  0
 17 18  2  0
  5 19  1  0
 19 20  2  0
 19 21  1  0
 21 22  1  0
 22 23  3  0
  7  2  1  0
 18 10  1  0
 15 11  1  0
  1 24  1  0
  1 25  1  0
  1 26  1  0
  2 27  1  1
  3 28  1  0
  3 29  1  0
  4 30  1  0
  4 31  1  0
  6 32  1  0
  6 33  1  0
  7 34  1  1
  9 35  1  0
  9 36  1  0
  9 37  1  0
 12 38  1  0
 13 39  1  0
 14 40  1  0
 17 41  1  0
 21 42  1  0
 21 43  1  0
M  END
>  <energy_abs>  (44) 
17.08043292743576

>  <SMILES>  (44) 
C[C@@H]1CCN(C[C@@H]1N(C)c2c3cc[nH]c3ncn2)C(=O)CC#N

>  <cluster_no>  (44) 
44

>  <fda_drugs_id>  (44) 
UJLAWZDWDVHWOW-YPMHNXCESA-N

>  <initial_conformation_id>  (44) 
252

>  <minimize_method>  (44) 
MMFF

$$$$

     RDKit          3D

 43 45  0  0  0  0  0  0  0  0999 V2000
   -1.4646    0.8433    3.7324 C   0  0  0  0  0  0  0  0  0  0  0  0
   -0.4170    0.2461    2.7890 C   0  0  2  0  0  0  0  0  0  0  0  0
    0.9841    0.4574    3.4006 C   0  0  0  0  0  0  0  0  0  0  0  0
    2.0984    0.3688    2.3644 C   0  0  0  0  0  0  0  0  0  0  0  0
    1.9404    1.3817    1.3198 N   0  0  0  0  0  0  0  0  0  0  0  0
    0.5694    1.8217    1.0182 C   0  0  0  0  0  0  0  0  0  0  0  0
   -0.4806    0.7252    1.3077 C   0  0  2  0  0  0  0  0  0  0  0  0
   -1.8620    1.0720    0.8902 N   0  0  0  0  0  0  0  0  0  0  0  0
   -2.2586    2.4825    0.9189 C   0  0  0  0  0  0  0  0  0  0  0  0
   -2.2098    0.4632   -0.3349 C   0  0  0  0  0  0  0  0  0  0  0  0
   -2.4548   -0.9219   -0.4515 C   0  0  0  0  0  0  0  0  0  0  0  0
   -2.4903   -2.0443    0.4272 C   0  0  0  0  0  0  0  0  0  0  0  0
   -2.8010   -3.1600   -0.3221 C   0  0  0  0  0  0  0  0  0  0  0  0
   -2.9670   -2.7536   -1.6215 N   0  0  0  0  0  0  0  0  0  0  0  0
   -2.7703   -1.4029   -1.7128 C   0  0  0  0  0  0  0  0  0  0  0  0
   -2.8765   -0.6962   -2.8458 N   0  0  0  0  0  0  0  0  0  0  0  0
   -2.6479    0.6080   -2.6243 C   0  0  0  0  0  0  0  0  0  0  0  0
   -2.3344    1.2135   -1.4616 N   0  0  0  0  0  0  0  0  0  0  0  0
    2.9920    1.9872    0.6310 C   0  0  0  0  0  0  0  0  0  0  0  0
    2.7938    2.9300   -0.1350 O   0  0  0  0  0  0  0  0  0  0  0  0
    4.3824    1.4414    0.8886 C   0  0  0  0  0  0  0  0  0  0  0  0
    5.3489    1.8793   -0.1221 C   0  0  0  0  0  0  0  0  0  0  0  0
    6.1676    2.1760   -0.8903 N   0  0  0  0  0  0  0  0  0  0  0  0
   -1.3592    0.4182    4.7371 H   0  0  0  0  0  0  0  0  0  0  0  0
   -1.3524    1.9281    3.8216 H   0  0  0  0  0  0  0  0  0  0  0  0
   -2.4822    0.6213    3.3963 H   0  0  0  0  0  0  0  0  0  0  0  0
   -0.6047   -0.8365    2.7735 H   0  0  0  0  0  0  0  0  0  0  0  0
    1.0360    1.4429    3.8825 H   0  0  0  0  0  0  0  0  0  0  0  0
    1.1525   -0.2853    4.1897 H   0  0  0  0  0  0  0  0  0  0  0  0
    3.0644    0.4901    2.8623 H   0  0  0  0  0  0  0  0  0  0  0  0
    2.0956   -0.6116    1.8745 H   0  0  0  0  0  0  0  0  0  0  0  0
    0.5130    2.1271   -0.0331 H   0  0  0  0  0  0  0  0  0  0  0  0
    0.3857    2.7139    1.6289 H   0  0  0  0  0  0  0  0  0  0  0  0
   -0.1371   -0.1441    0.7248 H   0  0  0  0  0  0  0  0  0  0  0  0
   -3.3372    2.5833    0.7477 H   0  0  0  0  0  0  0  0  0  0  0  0
   -2.0592    2.9194    1.9016 H   0  0  0  0  0  0  0  0  0  0  0  0
   -1.7275    3.0878    0.1750 H   0  0  0  0  0  0  0  0  0  0  0  0
   -2.3180   -2.0275    1.4947 H   0  0  0  0  0  0  0  0  0  0  0  0
   -2.9286   -4.1978   -0.0444 H   0  0  0  0  0  0  0  0  0  0  0  0
   -3.2115   -3.3380   -2.4077 H   0  0  0  0  0  0  0  0  0  0  0  0
   -2.7232    1.2588   -3.4902 H   0  0  0  0  0  0  0  0  0  0  0  0
    4.3484    0.3468    0.8870 H   0  0  0  0  0  0  0  0  0  0  0  0
    4.7060    1.7816    1.8779 H   0  0  0  0  0  0  0  0  0  0  0  0
  1  2  1  0
  2  3  1  0
  3  4  1  0
  4  5  1  0
  5  6  1  0
  6  7  1  0
  7  8  1  0
  8  9  1  0
  8 10  1  0
 10 11  2  0
 11 12  1  0
 12 13  2  0
 13 14  1  0
 14 15  1  0
 15 16  2  0
 16 17  1  0
 17 18  2  0
  5 19  1  0
 19 20  2  0
 19 21  1  0
 21 22  1  0
 22 23  3  0
  7  2  1  0
 18 10  1  0
 15 11  1  0
  1 24  1  0
  1 25  1  0
  1 26  1  0
  2 27  1  6
  3 28  1  0
  3 29  1  0
  4 30  1  0
  4 31  1  0
  6 32  1  0
  6 33  1  0
  7 34  1  6
  9 35  1  0
  9 36  1  0
  9 37  1  0
 12 38  1  0
 13 39  1  0
 14 40  1  0
 17 41  1  0
 21 42  1  0
 21 43  1  0
M  END
>  <energy_abs>  (45) 
16.457723645952473

>  <SMILES>  (45) 
C[C@@H]1CCN(C[C@@H]1N(C)c2c3cc[nH]c3ncn2)C(=O)CC#N

>  <cluster_no>  (45) 
45

>  <fda_drugs_id>  (45) 
UJLAWZDWDVHWOW-YPMHNXCESA-N

>  <initial_conformation_id>  (45) 
248

>  <minimize_method>  (45) 
MMFF

$$$$

     RDKit          3D

 43 45  0  0  0  0  0  0  0  0999 V2000
   -0.4438    3.0866    0.2175 C   0  0  0  0  0  0  0  0  0  0  0  0
   -0.5326    1.7100    0.8814 C   0  0  2  0  0  0  0  0  0  0  0  0
    0.0916    1.7483    2.2887 C   0  0  0  0  0  0  0  0  0  0  0  0
    1.6126    1.8733    2.2636 C   0  0  0  0  0  0  0  0  0  0  0  0
    2.2432    0.8483    1.4274 N   0  0  0  0  0  0  0  0  0  0  0  0
    1.6685    0.6849    0.0828 C   0  0  0  0  0  0  0  0  0  0  0  0
    0.1272    0.5497    0.0874 C   0  0  2  0  0  0  0  0  0  0  0  0
   -0.4384    0.3081   -1.2630 N   0  0  0  0  0  0  0  0  0  0  0  0
    0.0804    1.0435   -2.4136 C   0  0  0  0  0  0  0  0  0  0  0  0
   -1.8284    0.1160   -1.3086 C   0  0  0  0  0  0  0  0  0  0  0  0
   -2.4992   -0.9324   -0.6383 C   0  0  0  0  0  0  0  0  0  0  0  0
   -2.1366   -2.0610    0.1570 C   0  0  0  0  0  0  0  0  0  0  0  0
   -3.2932   -2.7204    0.5175 C   0  0  0  0  0  0  0  0  0  0  0  0
   -4.3455   -2.0447   -0.0430 N   0  0  0  0  0  0  0  0  0  0  0  0
   -3.8811   -0.9738   -0.7561 C   0  0  0  0  0  0  0  0  0  0  0  0
   -4.6630   -0.1327   -1.4456 N   0  0  0  0  0  0  0  0  0  0  0  0
   -3.9319    0.8016   -2.0708 C   0  0  0  0  0  0  0  0  0  0  0  0
   -2.5953    0.9662   -2.0468 N   0  0  0  0  0  0  0  0  0  0  0  0
    3.5781    0.4599    1.5809 C   0  0  0  0  0  0  0  0  0  0  0  0
    4.2025   -0.0989    0.6751 O   0  0  0  0  0  0  0  0  0  0  0  0
    4.2578    0.6931    2.9118 C   0  0  0  0  0  0  0  0  0  0  0  0
    4.7895    2.0516    2.9853 C   0  0  0  0  0  0  0  0  0  0  0  0
    5.1797    3.1411    3.0756 N   0  0  0  0  0  0  0  0  0  0  0  0
   -0.7874    3.8689    0.9035 H   0  0  0  0  0  0  0  0  0  0  0  0
    0.5742    3.3393   -0.0911 H   0  0  0  0  0  0  0  0  0  0  0  0
   -1.0915    3.1387   -0.6618 H   0  0  0  0  0  0  0  0  0  0  0  0
   -1.5999    1.4935    1.0181 H   0  0  0  0  0  0  0  0  0  0  0  0
   -0.3351    2.5719    2.8733 H   0  0  0  0  0  0  0  0  0  0  0  0
   -0.1765    0.8227    2.8152 H   0  0  0  0  0  0  0  0  0  0  0  0
    1.9794    1.8133    3.2905 H   0  0  0  0  0  0  0  0  0  0  0  0
    1.9191    2.8496    1.8709 H   0  0  0  0  0  0  0  0  0  0  0  0
    1.9976    1.5518   -0.5018 H   0  0  0  0  0  0  0  0  0  0  0  0
    2.0988   -0.2032   -0.3958 H   0  0  0  0  0  0  0  0  0  0  0  0
   -0.0586   -0.3588    0.6745 H   0  0  0  0  0  0  0  0  0  0  0  0
   -0.3276    0.6474   -3.3522 H   0  0  0  0  0  0  0  0  0  0  0  0
    1.1648    0.9215   -2.4953 H   0  0  0  0  0  0  0  0  0  0  0  0
   -0.1388    2.1132   -2.3658 H   0  0  0  0  0  0  0  0  0  0  0  0
   -1.1333   -2.3658    0.4229 H   0  0  0  0  0  0  0  0  0  0  0  0
   -3.4557   -3.6127    1.1073 H   0  0  0  0  0  0  0  0  0  0  0  0
   -5.3223   -2.2908    0.0247 H   0  0  0  0  0  0  0  0  0  0  0  0
   -4.4852    1.5177   -2.6705 H   0  0  0  0  0  0  0  0  0  0  0  0
    3.5708    0.4727    3.7339 H   0  0  0  0  0  0  0  0  0  0  0  0
    5.0741   -0.0333    3.0036 H   0  0  0  0  0  0  0  0  0  0  0  0
  1  2  1  0
  2  3  1  0
  3  4  1  0
  4  5  1  0
  5  6  1  0
  6  7  1  0
  7  8  1  0
  8  9  1  0
  8 10  1  0
 10 11  2  0
 11 12  1  0
 12 13  2  0
 13 14  1  0
 14 15  1  0
 15 16  2  0
 16 17  1  0
 17 18  2  0
  5 19  1  0
 19 20  2  0
 19 21  1  0
 21 22  1  0
 22 23  3  0
  7  2  1  0
 18 10  1  0
 15 11  1  0
  1 24  1  0
  1 25  1  0
  1 26  1  0
  2 27  1  1
  3 28  1  0
  3 29  1  0
  4 30  1  0
  4 31  1  0
  6 32  1  0
  6 33  1  0
  7 34  1  1
  9 35  1  0
  9 36  1  0
  9 37  1  0
 12 38  1  0
 13 39  1  0
 14 40  1  0
 17 41  1  0
 21 42  1  0
 21 43  1  0
M  END
>  <energy_abs>  (46) 
12.633778597360418

>  <SMILES>  (46) 
C[C@@H]1CCN(C[C@@H]1N(C)c2c3cc[nH]c3ncn2)C(=O)CC#N

>  <cluster_no>  (46) 
46

>  <fda_drugs_id>  (46) 
UJLAWZDWDVHWOW-YPMHNXCESA-N

>  <initial_conformation_id>  (46) 
244

>  <minimize_method>  (46) 
MMFF

$$$$

     RDKit          3D

 43 45  0  0  0  0  0  0  0  0999 V2000
   -1.3894    3.6055    0.2537 C   0  0  0  0  0  0  0  0  0  0  0  0
   -0.2802    2.8140    0.9482 C   0  0  2  0  0  0  0  0  0  0  0  0
    1.0971    3.4350    0.6964 C   0  0  0  0  0  0  0  0  0  0  0  0
    2.1424    2.7940    1.6084 C   0  0  0  0  0  0  0  0  0  0  0  0
    2.0245    1.3385    1.7083 N   0  0  0  0  0  0  0  0  0  0  0  0
    1.1589    0.6789    0.7213 C   0  0  0  0  0  0  0  0  0  0  0  0
   -0.2741    1.2787    0.6604 C   0  0  2  0  0  0  0  0  0  0  0  0
   -1.0033    0.9516   -0.5933 N   0  0  0  0  0  0  0  0  0  0  0  0
   -0.3110    1.1246   -1.8705 C   0  0  0  0  0  0  0  0  0  0  0  0
   -1.6847   -0.2817   -0.5592 C   0  0  0  0  0  0  0  0  0  0  0  0
   -2.8125   -0.5571   -1.3634 C   0  0  0  0  0  0  0  0  0  0  0  0
   -3.6061    0.1513   -2.3139 C   0  0  0  0  0  0  0  0  0  0  0  0
   -4.6017   -0.6964   -2.7532 C   0  0  0  0  0  0  0  0  0  0  0  0
   -4.4495   -1.8897   -2.0951 N   0  0  0  0  0  0  0  0  0  0  0  0
   -3.3815   -1.8160   -1.2434 C   0  0  0  0  0  0  0  0  0  0  0  0
   -2.9843   -2.8118   -0.4400 N   0  0  0  0  0  0  0  0  0  0  0  0
   -1.9248   -2.4433    0.2964 C   0  0  0  0  0  0  0  0  0  0  0  0
   -1.2748   -1.2627    0.2872 N   0  0  0  0  0  0  0  0  0  0  0  0
    2.9037    0.5473    2.4474 C   0  0  0  0  0  0  0  0  0  0  0  0
    2.9299   -0.6812    2.3435 O   0  0  0  0  0  0  0  0  0  0  0  0
    3.8382    1.2262    3.4254 C   0  0  0  0  0  0  0  0  0  0  0  0
    5.0755    1.6249    2.7589 C   0  0  0  0  0  0  0  0  0  0  0  0
    6.0498    1.9879    2.2425 N   0  0  0  0  0  0  0  0  0  0  0  0
   -1.4178    4.6331    0.6328 H   0  0  0  0  0  0  0  0  0  0  0  0
   -2.3699    3.1575    0.4463 H   0  0  0  0  0  0  0  0  0  0  0  0
   -1.2375    3.6632   -0.8283 H   0  0  0  0  0  0  0  0  0  0  0  0
   -0.4709    2.9229    2.0270 H   0  0  0  0  0  0  0  0  0  0  0  0
    1.0782    4.5158    0.8801 H   0  0  0  0  0  0  0  0  0  0  0  0
    1.3880    3.3023   -0.3517 H   0  0  0  0  0  0  0  0  0  0  0  0
    3.1459    3.0409    1.2467 H   0  0  0  0  0  0  0  0  0  0  0  0
    2.0419    3.2071    2.6177 H   0  0  0  0  0  0  0  0  0  0  0  0
    1.6815    0.7771   -0.2368 H   0  0  0  0  0  0  0  0  0  0  0  0
    1.0970   -0.3949    0.9229 H   0  0  0  0  0  0  0  0  0  0  0  0
   -0.8363    0.8593    1.5090 H   0  0  0  0  0  0  0  0  0  0  0  0
    0.2823    2.0432   -1.8736 H   0  0  0  0  0  0  0  0  0  0  0  0
    0.3636    0.2871   -2.0851 H   0  0  0  0  0  0  0  0  0  0  0  0
   -1.0168    1.2182   -2.7017 H   0  0  0  0  0  0  0  0  0  0  0  0
   -3.4634    1.1760   -2.6308 H   0  0  0  0  0  0  0  0  0  0  0  0
   -5.4042   -0.5522   -3.4643 H   0  0  0  0  0  0  0  0  0  0  0  0
   -5.0319   -2.7086   -2.1931 H   0  0  0  0  0  0  0  0  0  0  0  0
   -1.5403   -3.1884    0.9865 H   0  0  0  0  0  0  0  0  0  0  0  0
    3.3481    2.0750    3.9085 H   0  0  0  0  0  0  0  0  0  0  0  0
    4.0568    0.5127    4.2288 H   0  0  0  0  0  0  0  0  0  0  0  0
  1  2  1  0
  2  3  1  0
  3  4  1  0
  4  5  1  0
  5  6  1  0
  6  7  1  0
  7  8  1  0
  8  9  1  0
  8 10  1  0
 10 11  2  0
 11 12  1  0
 12 13  2  0
 13 14  1  0
 14 15  1  0
 15 16  2  0
 16 17  1  0
 17 18  2  0
  5 19  1  0
 19 20  2  0
 19 21  1  0
 21 22  1  0
 22 23  3  0
  7  2  1  0
 18 10  1  0
 15 11  1  0
  1 24  1  0
  1 25  1  0
  1 26  1  0
  2 27  1  1
  3 28  1  0
  3 29  1  0
  4 30  1  0
  4 31  1  0
  6 32  1  0
  6 33  1  0
  7 34  1  1
  9 35  1  0
  9 36  1  0
  9 37  1  0
 12 38  1  0
 13 39  1  0
 14 40  1  0
 17 41  1  0
 21 42  1  0
 21 43  1  0
M  END
>  <energy_abs>  (47) 
15.067899956284183

>  <SMILES>  (47) 
C[C@@H]1CCN(C[C@@H]1N(C)c2c3cc[nH]c3ncn2)C(=O)CC#N

>  <cluster_no>  (47) 
47

>  <fda_drugs_id>  (47) 
UJLAWZDWDVHWOW-YPMHNXCESA-N

>  <initial_conformation_id>  (47) 
239

>  <minimize_method>  (47) 
MMFF

$$$$

     RDKit          3D

 43 45  0  0  0  0  0  0  0  0999 V2000
   -1.6107    3.7969   -0.0887 C   0  0  0  0  0  0  0  0  0  0  0  0
   -0.4102    3.0477    0.4895 C   0  0  2  0  0  0  0  0  0  0  0  0
    0.6209    2.7287   -0.6002 C   0  0  0  0  0  0  0  0  0  0  0  0
    1.9366    2.2714    0.0342 C   0  0  0  0  0  0  0  0  0  0  0  0
    1.7415    1.4102    1.2026 N   0  0  0  0  0  0  0  0  0  0  0  0
    0.4332    0.7500    1.2908 C   0  0  0  0  0  0  0  0  0  0  0  0
   -0.7467    1.7684    1.3246 C   0  0  2  0  0  0  0  0  0  0  0  0
   -2.0920    1.2282    0.9570 N   0  0  0  0  0  0  0  0  0  0  0  0
   -3.1015    1.4170    2.0086 C   0  0  0  0  0  0  0  0  0  0  0  0
   -2.1192   -0.1111    0.5357 C   0  0  0  0  0  0  0  0  0  0  0  0
   -2.1591   -0.4684   -0.8252 C   0  0  0  0  0  0  0  0  0  0  0  0
   -2.2063    0.2141   -2.0742 C   0  0  0  0  0  0  0  0  0  0  0  0
   -2.2222   -0.7352   -3.0752 C   0  0  0  0  0  0  0  0  0  0  0  0
   -2.1923   -1.9692   -2.4773 N   0  0  0  0  0  0  0  0  0  0  0  0
   -2.1577   -1.8234   -1.1176 C   0  0  0  0  0  0  0  0  0  0  0  0
   -2.1265   -2.8399   -0.2450 N   0  0  0  0  0  0  0  0  0  0  0  0
   -2.0983   -2.3916    1.0202 C   0  0  0  0  0  0  0  0  0  0  0  0
   -2.0950   -1.1143    1.4515 N   0  0  0  0  0  0  0  0  0  0  0  0
    2.7758    0.9510    2.0140 C   0  0  0  0  0  0  0  0  0  0  0  0
    2.5973    0.0931    2.8819 O   0  0  0  0  0  0  0  0  0  0  0  0
    4.1527    1.5552    1.8447 C   0  0  0  0  0  0  0  0  0  0  0  0
    4.8717    0.9062    0.7513 C   0  0  0  0  0  0  0  0  0  0  0  0
    5.4502    0.4335   -0.1372 N   0  0  0  0  0  0  0  0  0  0  0  0
   -1.2840    4.7211   -0.5782 H   0  0  0  0  0  0  0  0  0  0  0  0
   -2.1445    3.2036   -0.8358 H   0  0  0  0  0  0  0  0  0  0  0  0
   -2.3138    4.0804    0.7004 H   0  0  0  0  0  0  0  0  0  0  0  0
    0.0759    3.7525    1.1812 H   0  0  0  0  0  0  0  0  0  0  0  0
    0.2329    1.9441   -1.2607 H   0  0  0  0  0  0  0  0  0  0  0  0
    0.8144    3.6030   -1.2327 H   0  0  0  0  0  0  0  0  0  0  0  0
    2.5098    3.1497    0.3469 H   0  0  0  0  0  0  0  0  0  0  0  0
    2.5352    1.7274   -0.7039 H   0  0  0  0  0  0  0  0  0  0  0  0
    0.3746    0.1069    2.1757 H   0  0  0  0  0  0  0  0  0  0  0  0
    0.3934    0.0893    0.4176 H   0  0  0  0  0  0  0  0  0  0  0  0
   -0.8017    2.1165    2.3672 H   0  0  0  0  0  0  0  0  0  0  0  0
   -2.8340    0.8997    2.9381 H   0  0  0  0  0  0  0  0  0  0  0  0
   -3.2030    2.4826    2.2410 H   0  0  0  0  0  0  0  0  0  0  0  0
   -4.0880    1.0711    1.6769 H   0  0  0  0  0  0  0  0  0  0  0  0
   -2.2296    1.2854   -2.2186 H   0  0  0  0  0  0  0  0  0  0  0  0
   -2.2561   -0.6406   -4.1524 H   0  0  0  0  0  0  0  0  0  0  0  0
   -2.1972   -2.8640   -2.9451 H   0  0  0  0  0  0  0  0  0  0  0  0
   -2.0727   -3.1521    1.7948 H   0  0  0  0  0  0  0  0  0  0  0  0
    4.6983    1.4143    2.7854 H   0  0  0  0  0  0  0  0  0  0  0  0
    4.0843    2.6365    1.7013 H   0  0  0  0  0  0  0  0  0  0  0  0
  1  2  1  0
  2  3  1  0
  3  4  1  0
  4  5  1  0
  5  6  1  0
  6  7  1  0
  7  8  1  0
  8  9  1  0
  8 10  1  0
 10 11  2  0
 11 12  1  0
 12 13  2  0
 13 14  1  0
 14 15  1  0
 15 16  2  0
 16 17  1  0
 17 18  2  0
  5 19  1  0
 19 20  2  0
 19 21  1  0
 21 22  1  0
 22 23  3  0
  7  2  1  0
 18 10  1  0
 15 11  1  0
  1 24  1  0
  1 25  1  0
  1 26  1  0
  2 27  1  1
  3 28  1  0
  3 29  1  0
  4 30  1  0
  4 31  1  0
  6 32  1  0
  6 33  1  0
  7 34  1  1
  9 35  1  0
  9 36  1  0
  9 37  1  0
 12 38  1  0
 13 39  1  0
 14 40  1  0
 17 41  1  0
 21 42  1  0
 21 43  1  0
M  END
>  <energy_abs>  (48) 
18.816952011126485

>  <SMILES>  (48) 
C[C@@H]1CCN(C[C@@H]1N(C)c2c3cc[nH]c3ncn2)C(=O)CC#N

>  <cluster_no>  (48) 
48

>  <fda_drugs_id>  (48) 
UJLAWZDWDVHWOW-YPMHNXCESA-N

>  <initial_conformation_id>  (48) 
229

>  <minimize_method>  (48) 
MMFF

$$$$

     RDKit          3D

 43 45  0  0  0  0  0  0  0  0999 V2000
   -2.1667    2.7763    1.2924 C   0  0  0  0  0  0  0  0  0  0  0  0
   -0.6719    2.4617    1.3666 C   0  0  2  0  0  0  0  0  0  0  0  0
    0.1659    3.6737    0.9399 C   0  0  0  0  0  0  0  0  0  0  0  0
    1.6466    3.4339    1.2314 C   0  0  0  0  0  0  0  0  0  0  0  0
    2.1184    2.1124    0.8215 N   0  0  0  0  0  0  0  0  0  0  0  0
    1.2044    1.3089    0.0043 C   0  0  0  0  0  0  0  0  0  0  0  0
   -0.2093    1.1651    0.6348 C   0  0  2  0  0  0  0  0  0  0  0  0
   -1.1833    0.6698   -0.3601 N   0  0  0  0  0  0  0  0  0  0  0  0
   -1.3331    1.3301   -1.6419 C   0  0  0  0  0  0  0  0  0  0  0  0
   -1.9204   -0.4713   -0.0543 C   0  0  0  0  0  0  0  0  0  0  0  0
   -2.6360   -1.2828   -0.9756 C   0  0  0  0  0  0  0  0  0  0  0  0
   -2.8554   -1.3386   -2.3888 C   0  0  0  0  0  0  0  0  0  0  0  0
   -3.6726   -2.4151   -2.6640 C   0  0  0  0  0  0  0  0  0  0  0  0
   -3.9557   -3.0282   -1.4748 N   0  0  0  0  0  0  0  0  0  0  0  0
   -3.3337   -2.3664   -0.4528 C   0  0  0  0  0  0  0  0  0  0  0  0
   -3.4142   -2.7462    0.8283 N   0  0  0  0  0  0  0  0  0  0  0  0
   -2.7010   -1.9337    1.6154 C   0  0  0  0  0  0  0  0  0  0  0  0
   -1.9826   -0.8550    1.2553 N   0  0  0  0  0  0  0  0  0  0  0  0
    3.4425    1.6875    0.9648 C   0  0  0  0  0  0  0  0  0  0  0  0
    3.8440    0.6441    0.4518 O   0  0  0  0  0  0  0  0  0  0  0  0
    4.3491    2.5776    1.7942 C   0  0  0  0  0  0  0  0  0  0  0  0
    5.7062    2.0378    1.9183 C   0  0  0  0  0  0  0  0  0  0  0  0
    6.8008    1.6767    2.0593 N   0  0  0  0  0  0  0  0  0  0  0  0
   -2.7676    1.9302    1.6389 H   0  0  0  0  0  0  0  0  0  0  0  0
   -2.4810    3.0392    0.2781 H   0  0  0  0  0  0  0  0  0  0  0  0
   -2.4076    3.6291    1.9371 H   0  0  0  0  0  0  0  0  0  0  0  0
   -0.4564    2.3027    2.4343 H   0  0  0  0  0  0  0  0  0  0  0  0
    0.0243    3.8709   -0.1293 H   0  0  0  0  0  0  0  0  0  0  0  0
   -0.1592    4.5770    1.4697 H   0  0  0  0  0  0  0  0  0  0  0  0
    1.8322    3.5355    2.3065 H   0  0  0  0  0  0  0  0  0  0  0  0
    2.2501    4.1915    0.7194 H   0  0  0  0  0  0  0  0  0  0  0  0
    1.1700    1.8005   -0.9746 H   0  0  0  0  0  0  0  0  0  0  0  0
    1.6129    0.3079   -0.1759 H   0  0  0  0  0  0  0  0  0  0  0  0
   -0.0669    0.4210    1.4307 H   0  0  0  0  0  0  0  0  0  0  0  0
   -0.7872    0.7901   -2.4220 H   0  0  0  0  0  0  0  0  0  0  0  0
   -0.9390    2.3507   -1.6184 H   0  0  0  0  0  0  0  0  0  0  0  0
   -2.3869    1.4263   -1.9247 H   0  0  0  0  0  0  0  0  0  0  0  0
   -2.4569   -0.6728   -3.1404 H   0  0  0  0  0  0  0  0  0  0  0  0
   -4.0660   -2.7973   -3.5966 H   0  0  0  0  0  0  0  0  0  0  0  0
   -4.5235   -3.8525   -1.3422 H   0  0  0  0  0  0  0  0  0  0  0  0
   -2.7010   -2.1707    2.6746 H   0  0  0  0  0  0  0  0  0  0  0  0
    4.4016    3.5654    1.3251 H   0  0  0  0  0  0  0  0  0  0  0  0
    3.9153    2.6856    2.7938 H   0  0  0  0  0  0  0  0  0  0  0  0
  1  2  1  0
  2  3  1  0
  3  4  1  0
  4  5  1  0
  5  6  1  0
  6  7  1  0
  7  8  1  0
  8  9  1  0
  8 10  1  0
 10 11  2  0
 11 12  1  0
 12 13  2  0
 13 14  1  0
 14 15  1  0
 15 16  2  0
 16 17  1  0
 17 18  2  0
  5 19  1  0
 19 20  2  0
 19 21  1  0
 21 22  1  0
 22 23  3  0
  7  2  1  0
 18 10  1  0
 15 11  1  0
  1 24  1  0
  1 25  1  0
  1 26  1  0
  2 27  1  1
  3 28  1  0
  3 29  1  0
  4 30  1  0
  4 31  1  0
  6 32  1  0
  6 33  1  0
  7 34  1  1
  9 35  1  0
  9 36  1  0
  9 37  1  0
 12 38  1  0
 13 39  1  0
 14 40  1  0
 17 41  1  0
 21 42  1  0
 21 43  1  0
M  END
>  <energy_abs>  (49) 
18.007122293933584

>  <SMILES>  (49) 
C[C@@H]1CCN(C[C@@H]1N(C)c2c3cc[nH]c3ncn2)C(=O)CC#N

>  <cluster_no>  (49) 
49

>  <fda_drugs_id>  (49) 
UJLAWZDWDVHWOW-YPMHNXCESA-N

>  <initial_conformation_id>  (49) 
220

>  <minimize_method>  (49) 
MMFF

$$$$

     RDKit          3D

 43 45  0  0  0  0  0  0  0  0999 V2000
   -0.6231    2.2631   -0.8947 C   0  0  0  0  0  0  0  0  0  0  0  0
   -0.7425    1.8595    0.5843 C   0  0  2  0  0  0  0  0  0  0  0  0
   -0.2956    3.0314    1.4893 C   0  0  0  0  0  0  0  0  0  0  0  0
    1.0533    2.8149    2.1743 C   0  0  0  0  0  0  0  0  0  0  0  0
    1.9962    2.1427    1.2889 N   0  0  0  0  0  0  0  0  0  0  0  0
    1.5647    0.8468    0.7514 C   0  0  0  0  0  0  0  0  0  0  0  0
    0.0468    0.5598    0.9236 C   0  0  2  0  0  0  0  0  0  0  0  0
   -0.3867   -0.5937    0.0833 N   0  0  0  0  0  0  0  0  0  0  0  0
    0.3808   -1.8333    0.2705 C   0  0  0  0  0  0  0  0  0  0  0  0
   -1.7465   -0.9349    0.3087 C   0  0  0  0  0  0  0  0  0  0  0  0
   -2.5798   -1.3764   -0.7370 C   0  0  0  0  0  0  0  0  0  0  0  0
   -2.4471   -1.5946   -2.1384 C   0  0  0  0  0  0  0  0  0  0  0  0
   -3.6638   -2.0405   -2.6116 C   0  0  0  0  0  0  0  0  0  0  0  0
   -4.5291   -2.0960   -1.5480 N   0  0  0  0  0  0  0  0  0  0  0  0
   -3.8871   -1.6958   -0.4079 C   0  0  0  0  0  0  0  0  0  0  0  0
   -4.4531   -1.6331    0.8052 N   0  0  0  0  0  0  0  0  0  0  0  0
   -3.5768   -1.2004    1.7265 C   0  0  0  0  0  0  0  0  0  0  0  0
   -2.2837   -0.8570    1.5542 N   0  0  0  0  0  0  0  0  0  0  0  0
    3.2873    2.6547    1.1492 C   0  0  0  0  0  0  0  0  0  0  0  0
    3.6353    3.6889    1.7178 O   0  0  0  0  0  0  0  0  0  0  0  0
    4.2254    1.8806    0.2425 C   0  0  0  0  0  0  0  0  0  0  0  0
    5.5843    2.4295    0.2406 C   0  0  0  0  0  0  0  0  0  0  0  0
    6.6831    2.8021    0.1934 N   0  0  0  0  0  0  0  0  0  0  0  0
   -0.9512    1.4584   -1.5593 H   0  0  0  0  0  0  0  0  0  0  0  0
   -1.2570    3.1324   -1.1031 H   0  0  0  0  0  0  0  0  0  0  0  0
    0.4026    2.5318   -1.1655 H   0  0  0  0  0  0  0  0  0  0  0  0
   -1.8119    1.7027    0.7720 H   0  0  0  0  0  0  0  0  0  0  0  0
   -0.2588    3.9624    0.9097 H   0  0  0  0  0  0  0  0  0  0  0  0
   -1.0502    3.1959    2.2688 H   0  0  0  0  0  0  0  0  0  0  0  0
    0.9359    2.1820    3.0624 H   0  0  0  0  0  0  0  0  0  0  0  0
    1.4412    3.7766    2.5251 H   0  0  0  0  0  0  0  0  0  0  0  0
    1.8488    0.7990   -0.3059 H   0  0  0  0  0  0  0  0  0  0  0  0
    2.1458    0.0780    1.2747 H   0  0  0  0  0  0  0  0  0  0  0  0
   -0.1155    0.3203    1.9848 H   0  0  0  0  0  0  0  0  0  0  0  0
    1.4117   -1.6943   -0.0711 H   0  0  0  0  0  0  0  0  0  0  0  0
    0.4067   -2.1393    1.3235 H   0  0  0  0  0  0  0  0  0  0  0  0
   -0.0231   -2.6604   -0.3267 H   0  0  0  0  0  0  0  0  0  0  0  0
   -1.5538   -1.4342   -2.7278 H   0  0  0  0  0  0  0  0  0  0  0  0
   -3.9884   -2.3166   -3.6061 H   0  0  0  0  0  0  0  0  0  0  0  0
   -5.4974   -2.3808   -1.5763 H   0  0  0  0  0  0  0  0  0  0  0  0
   -3.9565   -1.1173    2.7405 H   0  0  0  0  0  0  0  0  0  0  0  0
    3.8229    1.9081   -0.7757 H   0  0  0  0  0  0  0  0  0  0  0  0
    4.2677    0.8385    0.5754 H   0  0  0  0  0  0  0  0  0  0  0  0
  1  2  1  0
  2  3  1  0
  3  4  1  0
  4  5  1  0
  5  6  1  0
  6  7  1  0
  7  8  1  0
  8  9  1  0
  8 10  1  0
 10 11  2  0
 11 12  1  0
 12 13  2  0
 13 14  1  0
 14 15  1  0
 15 16  2  0
 16 17  1  0
 17 18  2  0
  5 19  1  0
 19 20  2  0
 19 21  1  0
 21 22  1  0
 22 23  3  0
  7  2  1  0
 18 10  1  0
 15 11  1  0
  1 24  1  0
  1 25  1  0
  1 26  1  0
  2 27  1  1
  3 28  1  0
  3 29  1  0
  4 30  1  0
  4 31  1  0
  6 32  1  0
  6 33  1  0
  7 34  1  1
  9 35  1  0
  9 36  1  0
  9 37  1  0
 12 38  1  0
 13 39  1  0
 14 40  1  0
 17 41  1  0
 21 42  1  0
 21 43  1  0
M  END
>  <energy_abs>  (50) 
15.280296826446193

>  <SMILES>  (50) 
C[C@@H]1CCN(C[C@@H]1N(C)c2c3cc[nH]c3ncn2)C(=O)CC#N

>  <cluster_no>  (50) 
50

>  <fda_drugs_id>  (50) 
UJLAWZDWDVHWOW-YPMHNXCESA-N

>  <initial_conformation_id>  (50) 
213

>  <minimize_method>  (50) 
MMFF

$$$$

     RDKit          3D

 43 45  0  0  0  0  0  0  0  0999 V2000
   -1.3035    3.0715    0.2353 C   0  0  0  0  0  0  0  0  0  0  0  0
   -0.2923    2.5269    1.2477 C   0  0  2  0  0  0  0  0  0  0  0  0
    0.9839    3.4031    1.2536 C   0  0  0  0  0  0  0  0  0  0  0  0
    1.8926    3.1406    0.0474 C   0  0  0  0  0  0  0  0  0  0  0  0
    2.2180    1.7154   -0.0364 N   0  0  0  0  0  0  0  0  0  0  0  0
    1.0318    0.8535   -0.1818 C   0  0  0  0  0  0  0  0  0  0  0  0
    0.0992    1.0358    1.0376 C   0  0  2  0  0  0  0  0  0  0  0  0
   -1.0543    0.1167    1.1409 N   0  0  0  0  0  0  0  0  0  0  0  0
   -1.4258   -0.3049    2.4825 C   0  0  0  0  0  0  0  0  0  0  0  0
   -1.7532   -0.3597    0.0423 C   0  0  0  0  0  0  0  0  0  0  0  0
   -2.6180   -1.4901    0.0237 C   0  0  0  0  0  0  0  0  0  0  0  0
   -3.0490   -2.5086    0.9331 C   0  0  0  0  0  0  0  0  0  0  0  0
   -3.9219   -3.3479    0.2730 C   0  0  0  0  0  0  0  0  0  0  0  0
   -4.0365   -2.8904   -1.0103 N   0  0  0  0  0  0  0  0  0  0  0  0
   -3.2527   -1.7829   -1.1789 C   0  0  0  0  0  0  0  0  0  0  0  0
   -3.1478   -1.1253   -2.3400 N   0  0  0  0  0  0  0  0  0  0  0  0
   -2.3062   -0.0931   -2.2297 C   0  0  0  0  0  0  0  0  0  0  0  0
   -1.6242    0.3062   -1.1403 N   0  0  0  0  0  0  0  0  0  0  0  0
    3.3974    1.1404    0.4273 C   0  0  0  0  0  0  0  0  0  0  0  0
    3.4817   -0.0633    0.6830 O   0  0  0  0  0  0  0  0  0  0  0  0
    4.6181    2.0179    0.5852 C   0  0  0  0  0  0  0  0  0  0  0  0
    4.6447    2.6196    1.9159 C   0  0  0  0  0  0  0  0  0  0  0  0
    4.6601    3.1370    2.9550 N   0  0  0  0  0  0  0  0  0  0  0  0
   -1.4985    4.1334    0.4221 H   0  0  0  0  0  0  0  0  0  0  0  0
   -2.2640    2.5547    0.3226 H   0  0  0  0  0  0  0  0  0  0  0  0
   -0.9517    2.9784   -0.7958 H   0  0  0  0  0  0  0  0  0  0  0  0
   -0.7598    2.6255    2.2367 H   0  0  0  0  0  0  0  0  0  0  0  0
    1.5438    3.1862    2.1724 H   0  0  0  0  0  0  0  0  0  0  0  0
    0.7190    4.4660    1.2927 H   0  0  0  0  0  0  0  0  0  0  0  0
    1.3943    3.4247   -0.8860 H   0  0  0  0  0  0  0  0  0  0  0  0
    2.7905    3.7552    0.1297 H   0  0  0  0  0  0  0  0  0  0  0  0
    1.3261   -0.1966   -0.2846 H   0  0  0  0  0  0  0  0  0  0  0  0
    0.5668    1.1538   -1.1239 H   0  0  0  0  0  0  0  0  0  0  0  0
    0.7428    0.7889    1.8971 H   0  0  0  0  0  0  0  0  0  0  0  0
   -1.0124    0.3685    3.2424 H   0  0  0  0  0  0  0  0  0  0  0  0
   -2.5115   -0.2880    2.6263 H   0  0  0  0  0  0  0  0  0  0  0  0
   -1.0321   -1.3037    2.6951 H   0  0  0  0  0  0  0  0  0  0  0  0
   -2.7534   -2.6336    1.9646 H   0  0  0  0  0  0  0  0  0  0  0  0
   -4.4592   -4.2272    0.6030 H   0  0  0  0  0  0  0  0  0  0  0  0
   -4.5966   -3.2955   -1.7461 H   0  0  0  0  0  0  0  0  0  0  0  0
   -2.1524    0.4974   -3.1272 H   0  0  0  0  0  0  0  0  0  0  0  0
    4.6553    2.7699   -0.2082 H   0  0  0  0  0  0  0  0  0  0  0  0
    5.5039    1.3883    0.4394 H   0  0  0  0  0  0  0  0  0  0  0  0
  1  2  1  0
  2  3  1  0
  3  4  1  0
  4  5  1  0
  5  6  1  0
  6  7  1  0
  7  8  1  0
  8  9  1  0
  8 10  1  0
 10 11  2  0
 11 12  1  0
 12 13  2  0
 13 14  1  0
 14 15  1  0
 15 16  2  0
 16 17  1  0
 17 18  2  0
  5 19  1  0
 19 20  2  0
 19 21  1  0
 21 22  1  0
 22 23  3  0
  7  2  1  0
 18 10  1  0
 15 11  1  0
  1 24  1  0
  1 25  1  0
  1 26  1  0
  2 27  1  1
  3 28  1  0
  3 29  1  0
  4 30  1  0
  4 31  1  0
  6 32  1  0
  6 33  1  0
  7 34  1  1
  9 35  1  0
  9 36  1  0
  9 37  1  0
 12 38  1  0
 13 39  1  0
 14 40  1  0
 17 41  1  0
 21 42  1  0
 21 43  1  0
M  END
>  <energy_abs>  (51) 
13.485486075003111

>  <SMILES>  (51) 
C[C@@H]1CCN(C[C@@H]1N(C)c2c3cc[nH]c3ncn2)C(=O)CC#N

>  <cluster_no>  (51) 
51

>  <fda_drugs_id>  (51) 
UJLAWZDWDVHWOW-YPMHNXCESA-N

>  <initial_conformation_id>  (51) 
208

>  <minimize_method>  (51) 
MMFF

$$$$

     RDKit          3D

 43 45  0  0  0  0  0  0  0  0999 V2000
   -1.9542    2.9192    2.0148 C   0  0  0  0  0  0  0  0  0  0  0  0
   -0.5542    2.4078    1.6751 C   0  0  2  0  0  0  0  0  0  0  0  0
    0.3651    3.5378    1.1986 C   0  0  0  0  0  0  0  0  0  0  0  0
    1.8159    3.0548    1.1408 C   0  0  0  0  0  0  0  0  0  0  0  0
    1.9621    1.7029    0.5960 N   0  0  0  0  0  0  0  0  0  0  0  0
    0.8081    1.1699   -0.1372 C   0  0  0  0  0  0  0  0  0  0  0  0
   -0.4995    1.1889    0.7032 C   0  0  2  0  0  0  0  0  0  0  0  0
   -1.7228    1.0672   -0.1314 N   0  0  0  0  0  0  0  0  0  0  0  0
   -1.8841    1.9695   -1.2731 C   0  0  0  0  0  0  0  0  0  0  0  0
   -2.0040   -0.2719   -0.4783 C   0  0  0  0  0  0  0  0  0  0  0  0
   -2.4219   -1.2368    0.4647 C   0  0  0  0  0  0  0  0  0  0  0  0
   -2.7101   -1.2641    1.8617 C   0  0  0  0  0  0  0  0  0  0  0  0
   -3.0855   -2.5492    2.1936 C   0  0  0  0  0  0  0  0  0  0  0  0
   -3.0464   -3.3009    1.0475 N   0  0  0  0  0  0  0  0  0  0  0  0
   -2.6580   -2.5194   -0.0061 C   0  0  0  0  0  0  0  0  0  0  0  0
   -2.5402   -2.9542   -1.2676 N   0  0  0  0  0  0  0  0  0  0  0  0
   -2.1600   -1.9610   -2.0861 C   0  0  0  0  0  0  0  0  0  0  0  0
   -1.8994   -0.6760   -1.7730 N   0  0  0  0  0  0  0  0  0  0  0  0
    3.1866    1.0500    0.4671 C   0  0  0  0  0  0  0  0  0  0  0  0
    3.3047   -0.0023   -0.1649 O   0  0  0  0  0  0  0  0  0  0  0  0
    4.3994    1.6423    1.1516 C   0  0  0  0  0  0  0  0  0  0  0  0
    5.0251    2.6539    0.3038 C   0  0  0  0  0  0  0  0  0  0  0  0
    5.5156    3.4902   -0.3346 N   0  0  0  0  0  0  0  0  0  0  0  0
   -2.4336    3.4118    1.1644 H   0  0  0  0  0  0  0  0  0  0  0  0
   -1.9024    3.6540    2.8260 H   0  0  0  0  0  0  0  0  0  0  0  0
   -2.5994    2.1029    2.3539 H   0  0  0  0  0  0  0  0  0  0  0  0
   -0.1325    2.0560    2.6295 H   0  0  0  0  0  0  0  0  0  0  0  0
    0.3031    4.4033    1.8688 H   0  0  0  0  0  0  0  0  0  0  0  0
    0.0522    3.8874    0.2081 H   0  0  0  0  0  0  0  0  0  0  0  0
    2.4094    3.7436    0.5308 H   0  0  0  0  0  0  0  0  0  0  0  0
    2.2367    3.0580    2.1516 H   0  0  0  0  0  0  0  0  0  0  0  0
    0.7262    1.7851   -1.0397 H   0  0  0  0  0  0  0  0  0  0  0  0
    0.9960    0.1467   -0.4808 H   0  0  0  0  0  0  0  0  0  0  0  0
   -0.4360    0.3221    1.3758 H   0  0  0  0  0  0  0  0  0  0  0  0
   -1.7080    3.0074   -0.9784 H   0  0  0  0  0  0  0  0  0  0  0  0
   -1.2015    1.7417   -2.0996 H   0  0  0  0  0  0  0  0  0  0  0  0
   -2.9126    1.9254   -1.6515 H   0  0  0  0  0  0  0  0  0  0  0  0
   -2.6518   -0.4267    2.5438 H   0  0  0  0  0  0  0  0  0  0  0  0
   -3.3819   -2.9888    3.1367 H   0  0  0  0  0  0  0  0  0  0  0  0
   -3.2760   -4.2804    0.9629 H   0  0  0  0  0  0  0  0  0  0  0  0
   -2.0472   -2.2240   -3.1335 H   0  0  0  0  0  0  0  0  0  0  0  0
    4.1336    2.0440    2.1326 H   0  0  0  0  0  0  0  0  0  0  0  0
    5.1060    0.8265    1.3458 H   0  0  0  0  0  0  0  0  0  0  0  0
  1  2  1  0
  2  3  1  0
  3  4  1  0
  4  5  1  0
  5  6  1  0
  6  7  1  0
  7  8  1  0
  8  9  1  0
  8 10  1  0
 10 11  2  0
 11 12  1  0
 12 13  2  0
 13 14  1  0
 14 15  1  0
 15 16  2  0
 16 17  1  0
 17 18  2  0
  5 19  1  0
 19 20  2  0
 19 21  1  0
 21 22  1  0
 22 23  3  0
  7  2  1  0
 18 10  1  0
 15 11  1  0
  1 24  1  0
  1 25  1  0
  1 26  1  0
  2 27  1  1
  3 28  1  0
  3 29  1  0
  4 30  1  0
  4 31  1  0
  6 32  1  0
  6 33  1  0
  7 34  1  1
  9 35  1  0
  9 36  1  0
  9 37  1  0
 12 38  1  0
 13 39  1  0
 14 40  1  0
 17 41  1  0
 21 42  1  0
 21 43  1  0
M  END
>  <energy_abs>  (52) 
15.010788327959117

>  <SMILES>  (52) 
C[C@@H]1CCN(C[C@@H]1N(C)c2c3cc[nH]c3ncn2)C(=O)CC#N

>  <cluster_no>  (52) 
52

>  <fda_drugs_id>  (52) 
UJLAWZDWDVHWOW-YPMHNXCESA-N

>  <initial_conformation_id>  (52) 
200

>  <minimize_method>  (52) 
MMFF

$$$$

     RDKit          3D

 43 45  0  0  0  0  0  0  0  0999 V2000
   -1.5577    2.4887    0.4196 C   0  0  0  0  0  0  0  0  0  0  0  0
   -0.6335    1.6022    1.2664 C   0  0  2  0  0  0  0  0  0  0  0  0
    0.3485    2.4507    2.0861 C   0  0  0  0  0  0  0  0  0  0  0  0
    1.3964    3.1429    1.2236 C   0  0  0  0  0  0  0  0  0  0  0  0
    2.0879    2.2126    0.3327 N   0  0  0  0  0  0  0  0  0  0  0  0
    1.2352    1.2812   -0.4224 C   0  0  0  0  0  0  0  0  0  0  0  0
    0.1648    0.5543    0.4350 C   0  0  2  0  0  0  0  0  0  0  0  0
   -0.7543   -0.2777   -0.3969 N   0  0  0  0  0  0  0  0  0  0  0  0
   -0.1039   -1.1691   -1.3682 C   0  0  0  0  0  0  0  0  0  0  0  0
   -1.6136   -1.0884    0.3891 C   0  0  0  0  0  0  0  0  0  0  0  0
   -2.9215   -1.4039   -0.0311 C   0  0  0  0  0  0  0  0  0  0  0  0
   -3.7460   -1.0963   -1.1518 C   0  0  0  0  0  0  0  0  0  0  0  0
   -4.9601   -1.7246   -0.9666 C   0  0  0  0  0  0  0  0  0  0  0  0
   -4.9020   -2.3974    0.2277 N   0  0  0  0  0  0  0  0  0  0  0  0
   -3.6764   -2.2092    0.8062 C   0  0  0  0  0  0  0  0  0  0  0  0
   -3.3007   -2.7282    1.9832 N   0  0  0  0  0  0  0  0  0  0  0  0
   -2.0451   -2.3650    2.2923 C   0  0  0  0  0  0  0  0  0  0  0  0
   -1.1994   -1.5914    1.5817 N   0  0  0  0  0  0  0  0  0  0  0  0
    3.3525    2.4853   -0.2135 C   0  0  0  0  0  0  0  0  0  0  0  0
    3.7689    1.8777   -1.2002 O   0  0  0  0  0  0  0  0  0  0  0  0
    4.1831    3.5469    0.4812 C   0  0  0  0  0  0  0  0  0  0  0  0
    5.5220    3.6820   -0.1002 C   0  0  0  0  0  0  0  0  0  0  0  0
    6.5971    3.8451   -0.5078 N   0  0  0  0  0  0  0  0  0  0  0  0
   -1.0182    3.0365   -0.3578 H   0  0  0  0  0  0  0  0  0  0  0  0
   -2.3352    1.8949   -0.0709 H   0  0  0  0  0  0  0  0  0  0  0  0
   -2.0654    3.2246    1.0528 H   0  0  0  0  0  0  0  0  0  0  0  0
   -1.2755    1.0803    1.9871 H   0  0  0  0  0  0  0  0  0  0  0  0
    0.8588    1.7970    2.8058 H   0  0  0  0  0  0  0  0  0  0  0  0
   -0.1948    3.1992    2.6750 H   0  0  0  0  0  0  0  0  0  0  0  0
    0.9441    3.9202    0.5973 H   0  0  0  0  0  0  0  0  0  0  0  0
    2.1097    3.6437    1.8832 H   0  0  0  0  0  0  0  0  0  0  0  0
    1.8808    0.5306   -0.8916 H   0  0  0  0  0  0  0  0  0  0  0  0
    0.7710    1.8490   -1.2382 H   0  0  0  0  0  0  0  0  0  0  0  0
    0.7220   -0.0893    1.1318 H   0  0  0  0  0  0  0  0  0  0  0  0
    0.3819   -0.5807   -2.1534 H   0  0  0  0  0  0  0  0  0  0  0  0
   -0.8232   -1.8154   -1.8862 H   0  0  0  0  0  0  0  0  0  0  0  0
    0.6522   -1.8029   -0.8892 H   0  0  0  0  0  0  0  0  0  0  0  0
   -3.4703   -0.4773   -1.9957 H   0  0  0  0  0  0  0  0  0  0  0  0
   -5.8547   -1.7483   -1.5746 H   0  0  0  0  0  0  0  0  0  0  0  0
   -5.6384   -2.9505    0.6414 H   0  0  0  0  0  0  0  0  0  0  0  0
   -1.6601   -2.7423    3.2349 H   0  0  0  0  0  0  0  0  0  0  0  0
    3.6620    4.5070    0.4033 H   0  0  0  0  0  0  0  0  0  0  0  0
    4.2817    3.2788    1.5386 H   0  0  0  0  0  0  0  0  0  0  0  0
  1  2  1  0
  2  3  1  0
  3  4  1  0
  4  5  1  0
  5  6  1  0
  6  7  1  0
  7  8  1  0
  8  9  1  0
  8 10  1  0
 10 11  2  0
 11 12  1  0
 12 13  2  0
 13 14  1  0
 14 15  1  0
 15 16  2  0
 16 17  1  0
 17 18  2  0
  5 19  1  0
 19 20  2  0
 19 21  1  0
 21 22  1  0
 22 23  3  0
  7  2  1  0
 18 10  1  0
 15 11  1  0
  1 24  1  0
  1 25  1  0
  1 26  1  0
  2 27  1  1
  3 28  1  0
  3 29  1  0
  4 30  1  0
  4 31  1  0
  6 32  1  0
  6 33  1  0
  7 34  1  1
  9 35  1  0
  9 36  1  0
  9 37  1  0
 12 38  1  0
 13 39  1  0
 14 40  1  0
 17 41  1  0
 21 42  1  0
 21 43  1  0
M  END
>  <energy_abs>  (53) 
10.217792771257416

>  <SMILES>  (53) 
C[C@@H]1CCN(C[C@@H]1N(C)c2c3cc[nH]c3ncn2)C(=O)CC#N

>  <cluster_no>  (53) 
53

>  <fda_drugs_id>  (53) 
UJLAWZDWDVHWOW-YPMHNXCESA-N

>  <initial_conformation_id>  (53) 
196

>  <minimize_method>  (53) 
MMFF

$$$$

     RDKit          3D

 43 45  0  0  0  0  0  0  0  0999 V2000
   -0.5967    1.8029   -3.4263 C   0  0  0  0  0  0  0  0  0  0  0  0
   -0.6758    2.4445   -2.0312 C   0  0  2  0  0  0  0  0  0  0  0  0
    0.5618    3.3520   -1.8449 C   0  0  0  0  0  0  0  0  0  0  0  0
    1.0904    3.3718   -0.4177 C   0  0  0  0  0  0  0  0  0  0  0  0
    1.4250    2.0238    0.0406 N   0  0  0  0  0  0  0  0  0  0  0  0
    0.5719    0.9219   -0.4455 C   0  0  0  0  0  0  0  0  0  0  0  0
   -0.8386    1.4150   -0.8668 C   0  0  2  0  0  0  0  0  0  0  0  0
   -1.7960    0.3460   -1.2409 N   0  0  0  0  0  0  0  0  0  0  0  0
   -3.1975    0.7540   -1.3747 C   0  0  0  0  0  0  0  0  0  0  0  0
   -1.7232   -0.8198   -0.4592 C   0  0  0  0  0  0  0  0  0  0  0  0
   -2.0297   -0.9158    0.9169 C   0  0  0  0  0  0  0  0  0  0  0  0
   -2.4688   -0.0390    1.9530 C   0  0  0  0  0  0  0  0  0  0  0  0
   -2.5690   -0.7726    3.1168 C   0  0  0  0  0  0  0  0  0  0  0  0
   -2.2041   -2.0623    2.8272 N   0  0  0  0  0  0  0  0  0  0  0  0
   -1.8781   -2.1639    1.5029 C   0  0  0  0  0  0  0  0  0  0  0  0
   -1.4777   -3.2955    0.9083 N   0  0  0  0  0  0  0  0  0  0  0  0
   -1.2073   -3.0909   -0.3906 C   0  0  0  0  0  0  0  0  0  0  0  0
   -1.3064   -1.9448   -1.0901 N   0  0  0  0  0  0  0  0  0  0  0  0
    2.4898    1.7053    0.8855 C   0  0  0  0  0  0  0  0  0  0  0  0
    2.7651    0.5367    1.1560 O   0  0  0  0  0  0  0  0  0  0  0  0
    3.2944    2.8636    1.4403 C   0  0  0  0  0  0  0  0  0  0  0  0
    4.1575    2.4618    2.5546 C   0  0  0  0  0  0  0  0  0  0  0  0
    4.8551    2.2237    3.4520 N   0  0  0  0  0  0  0  0  0  0  0  0
   -0.4435    2.5707   -4.1930 H   0  0  0  0  0  0  0  0  0  0  0  0
   -1.5168    1.2728   -3.6873 H   0  0  0  0  0  0  0  0  0  0  0  0
    0.2330    1.0913   -3.4922 H   0  0  0  0  0  0  0  0  0  0  0  0
   -1.5635    3.0914   -2.0239 H   0  0  0  0  0  0  0  0  0  0  0  0
    1.3761    3.0173   -2.5018 H   0  0  0  0  0  0  0  0  0  0  0  0
    0.3136    4.3723   -2.1616 H   0  0  0  0  0  0  0  0  0  0  0  0
    1.9670    4.0230   -0.3699 H   0  0  0  0  0  0  0  0  0  0  0  0
    0.3400    3.7772    0.2704 H   0  0  0  0  0  0  0  0  0  0  0  0
    1.0918    0.4506   -1.2883 H   0  0  0  0  0  0  0  0  0  0  0  0
    0.5140    0.1741    0.3509 H   0  0  0  0  0  0  0  0  0  0  0  0
   -1.2578    1.9591   -0.0079 H   0  0  0  0  0  0  0  0  0  0  0  0
   -3.8323   -0.0911   -1.6687 H   0  0  0  0  0  0  0  0  0  0  0  0
   -3.3061    1.5087   -2.1598 H   0  0  0  0  0  0  0  0  0  0  0  0
   -3.5926    1.1870   -0.4493 H   0  0  0  0  0  0  0  0  0  0  0  0
   -2.6843    1.0165    1.8601 H   0  0  0  0  0  0  0  0  0  0  0  0
   -2.8600   -0.4914    4.1203 H   0  0  0  0  0  0  0  0  0  0  0  0
   -2.1642   -2.8367    3.4741 H   0  0  0  0  0  0  0  0  0  0  0  0
   -0.8659   -3.9569   -0.9493 H   0  0  0  0  0  0  0  0  0  0  0  0
    3.9067    3.2751    0.6309 H   0  0  0  0  0  0  0  0  0  0  0  0
    2.6102    3.6412    1.7962 H   0  0  0  0  0  0  0  0  0  0  0  0
  1  2  1  0
  2  3  1  0
  3  4  1  0
  4  5  1  0
  5  6  1  0
  6  7  1  0
  7  8  1  0
  8  9  1  0
  8 10  1  0
 10 11  2  0
 11 12  1  0
 12 13  2  0
 13 14  1  0
 14 15  1  0
 15 16  2  0
 16 17  1  0
 17 18  2  0
  5 19  1  0
 19 20  2  0
 19 21  1  0
 21 22  1  0
 22 23  3  0
  7  2  1  0
 18 10  1  0
 15 11  1  0
  1 24  1  0
  1 25  1  0
  1 26  1  0
  2 27  1  6
  3 28  1  0
  3 29  1  0
  4 30  1  0
  4 31  1  0
  6 32  1  0
  6 33  1  0
  7 34  1  1
  9 35  1  0
  9 36  1  0
  9 37  1  0
 12 38  1  0
 13 39  1  0
 14 40  1  0
 17 41  1  0
 21 42  1  0
 21 43  1  0
M  END
>  <energy_abs>  (54) 
22.11559162865182

>  <SMILES>  (54) 
C[C@@H]1CCN(C[C@@H]1N(C)c2c3cc[nH]c3ncn2)C(=O)CC#N

>  <cluster_no>  (54) 
54

>  <fda_drugs_id>  (54) 
UJLAWZDWDVHWOW-YPMHNXCESA-N

>  <initial_conformation_id>  (54) 
194

>  <minimize_method>  (54) 
MMFF

$$$$

     RDKit          3D

 43 45  0  0  0  0  0  0  0  0999 V2000
    2.7239   -1.6256   -0.2986 C   0  0  0  0  0  0  0  0  0  0  0  0
    2.0492   -0.8395   -1.4349 C   0  0  2  0  0  0  0  0  0  0  0  0
    3.0351    0.2056   -2.0051 C   0  0  0  0  0  0  0  0  0  0  0  0
    2.6704    1.6534   -1.6874 C   0  0  0  0  0  0  0  0  0  0  0  0
    2.1675    1.7945   -0.3280 N   0  0  0  0  0  0  0  0  0  0  0  0
    1.0199    0.9473    0.0267 C   0  0  0  0  0  0  0  0  0  0  0  0
    0.7071   -0.1796   -1.0039 C   0  0  2  0  0  0  0  0  0  0  0  0
   -0.2457   -1.1879   -0.4515 N   0  0  0  0  0  0  0  0  0  0  0  0
   -0.6292   -2.2580   -1.3859 C   0  0  0  0  0  0  0  0  0  0  0  0
   -1.4553   -0.6070    0.0064 C   0  0  0  0  0  0  0  0  0  0  0  0
   -2.1573   -1.1313    1.1090 C   0  0  0  0  0  0  0  0  0  0  0  0
   -1.9833   -2.2091    2.0242 C   0  0  0  0  0  0  0  0  0  0  0  0
   -3.0463   -2.1901    2.9034 C   0  0  0  0  0  0  0  0  0  0  0  0
   -3.8551   -1.1373    2.5559 N   0  0  0  0  0  0  0  0  0  0  0  0
   -3.3275   -0.4863    1.4744 C   0  0  0  0  0  0  0  0  0  0  0  0
   -3.8714    0.5909    0.8927 N   0  0  0  0  0  0  0  0  0  0  0  0
   -3.1230    1.0162   -0.1378 C   0  0  0  0  0  0  0  0  0  0  0  0
   -1.9723    0.4889   -0.6064 N   0  0  0  0  0  0  0  0  0  0  0  0
    2.5728    2.8938    0.4242 C   0  0  0  0  0  0  0  0  0  0  0  0
    3.4260    3.6861    0.0158 O   0  0  0  0  0  0  0  0  0  0  0  0
    1.9509    3.1088    1.7877 C   0  0  0  0  0  0  0  0  0  0  0  0
    0.7705    3.9637    1.6756 C   0  0  0  0  0  0  0  0  0  0  0  0
   -0.1846    4.6207    1.6097 N   0  0  0  0  0  0  0  0  0  0  0  0
    3.0358   -0.9715    0.5215 H   0  0  0  0  0  0  0  0  0  0  0  0
    2.0604   -2.3928    0.1116 H   0  0  0  0  0  0  0  0  0  0  0  0
    3.6184   -2.1381   -0.6704 H   0  0  0  0  0  0  0  0  0  0  0  0
    1.8535   -1.5587   -2.2398 H   0  0  0  0  0  0  0  0  0  0  0  0
    4.0505    0.0053   -1.6404 H   0  0  0  0  0  0  0  0  0  0  0  0
    3.0860    0.0986   -3.0961 H   0  0  0  0  0  0  0  0  0  0  0  0
    3.5431    2.2914   -1.8618 H   0  0  0  0  0  0  0  0  0  0  0  0
    1.8829    2.0095   -2.3629 H   0  0  0  0  0  0  0  0  0  0  0  0
    1.2170    0.5085    1.0112 H   0  0  0  0  0  0  0  0  0  0  0  0
    0.1612    1.6152    0.1415 H   0  0  0  0  0  0  0  0  0  0  0  0
    0.2677    0.2772   -1.9031 H   0  0  0  0  0  0  0  0  0  0  0  0
   -1.0180   -1.8511   -2.3273 H   0  0  0  0  0  0  0  0  0  0  0  0
    0.2321   -2.8923   -1.6163 H   0  0  0  0  0  0  0  0  0  0  0  0
   -1.3838   -2.9294   -0.9575 H   0  0  0  0  0  0  0  0  0  0  0  0
   -1.1631   -2.9154    2.0309 H   0  0  0  0  0  0  0  0  0  0  0  0
   -3.2945   -2.8272    3.7419 H   0  0  0  0  0  0  0  0  0  0  0  0
   -4.7106   -0.8595    3.0150 H   0  0  0  0  0  0  0  0  0  0  0  0
   -3.4880    1.8959   -0.6601 H   0  0  0  0  0  0  0  0  0  0  0  0
    1.7149    2.1597    2.2736 H   0  0  0  0  0  0  0  0  0  0  0  0
    2.7043    3.5882    2.4241 H   0  0  0  0  0  0  0  0  0  0  0  0
  1  2  1  0
  2  3  1  0
  3  4  1  0
  4  5  1  0
  5  6  1  0
  6  7  1  0
  7  8  1  0
  8  9  1  0
  8 10  1  0
 10 11  2  0
 11 12  1  0
 12 13  2  0
 13 14  1  0
 14 15  1  0
 15 16  2  0
 16 17  1  0
 17 18  2  0
  5 19  1  0
 19 20  2  0
 19 21  1  0
 21 22  1  0
 22 23  3  0
  7  2  1  0
 18 10  1  0
 15 11  1  0
  1 24  1  0
  1 25  1  0
  1 26  1  0
  2 27  1  6
  3 28  1  0
  3 29  1  0
  4 30  1  0
  4 31  1  0
  6 32  1  0
  6 33  1  0
  7 34  1  6
  9 35  1  0
  9 36  1  0
  9 37  1  0
 12 38  1  0
 13 39  1  0
 14 40  1  0
 17 41  1  0
 21 42  1  0
 21 43  1  0
M  END
>  <energy_abs>  (55) 
12.8407172372875

>  <SMILES>  (55) 
C[C@@H]1CCN(C[C@@H]1N(C)c2c3cc[nH]c3ncn2)C(=O)CC#N

>  <cluster_no>  (55) 
55

>  <fda_drugs_id>  (55) 
UJLAWZDWDVHWOW-YPMHNXCESA-N

>  <initial_conformation_id>  (55) 
180

>  <minimize_method>  (55) 
MMFF

$$$$

     RDKit          3D

 43 45  0  0  0  0  0  0  0  0999 V2000
    1.1222   -1.7842   -2.2094 C   0  0  0  0  0  0  0  0  0  0  0  0
    0.6425   -0.3316   -2.2752 C   0  0  2  0  0  0  0  0  0  0  0  0
    1.7569    0.6054   -2.7742 C   0  0  0  0  0  0  0  0  0  0  0  0
    2.5952    1.1906   -1.6469 C   0  0  0  0  0  0  0  0  0  0  0  0
    1.7944    1.8767   -0.6349 N   0  0  0  0  0  0  0  0  0  0  0  0
    0.3404    1.6656   -0.6678 C   0  0  0  0  0  0  0  0  0  0  0  0
   -0.0722    0.2084   -1.0006 C   0  0  2  0  0  0  0  0  0  0  0  0
    0.0149   -0.7108    0.1669 N   0  0  0  0  0  0  0  0  0  0  0  0
    1.2212   -0.7055    0.9946 C   0  0  0  0  0  0  0  0  0  0  0  0
   -1.1495   -0.6476    0.9637 C   0  0  0  0  0  0  0  0  0  0  0  0
   -2.3687   -1.2353    0.5671 C   0  0  0  0  0  0  0  0  0  0  0  0
   -2.8346   -1.9990   -0.5429 C   0  0  0  0  0  0  0  0  0  0  0  0
   -4.1677   -2.2828   -0.3308 C   0  0  0  0  0  0  0  0  0  0  0  0
   -4.5245   -1.7279    0.8719 N   0  0  0  0  0  0  0  0  0  0  0  0
   -3.4461   -1.0949    1.4274 C   0  0  0  0  0  0  0  0  0  0  0  0
   -3.4615   -0.4603    2.6072 N   0  0  0  0  0  0  0  0  0  0  0  0
   -2.2543    0.0482    2.8992 C   0  0  0  0  0  0  0  0  0  0  0  0
   -1.1272    0.0002    2.1598 N   0  0  0  0  0  0  0  0  0  0  0  0
    2.4685    2.6779    0.2879 C   0  0  0  0  0  0  0  0  0  0  0  0
    3.6986    2.7404    0.2884 O   0  0  0  0  0  0  0  0  0  0  0  0
    1.6230    3.4455    1.2849 C   0  0  0  0  0  0  0  0  0  0  0  0
    2.4073    4.4204    2.0480 C   0  0  0  0  0  0  0  0  0  0  0  0
    2.9636    5.2190    2.6817 N   0  0  0  0  0  0  0  0  0  0  0  0
    1.4335   -2.1248   -3.2036 H   0  0  0  0  0  0  0  0  0  0  0  0
    0.3218   -2.4527   -1.8771 H   0  0  0  0  0  0  0  0  0  0  0  0
    1.9819   -1.9069   -1.5461 H   0  0  0  0  0  0  0  0  0  0  0  0
   -0.1157   -0.3258   -3.0731 H   0  0  0  0  0  0  0  0  0  0  0  0
    2.4057    0.0913   -3.4930 H   0  0  0  0  0  0  0  0  0  0  0  0
    1.2916    1.4338   -3.3257 H   0  0  0  0  0  0  0  0  0  0  0  0
    3.3187    1.9030   -2.0613 H   0  0  0  0  0  0  0  0  0  0  0  0
    3.1738    0.4068   -1.1465 H   0  0  0  0  0  0  0  0  0  0  0  0
   -0.0430    2.3373   -1.4464 H   0  0  0  0  0  0  0  0  0  0  0  0
   -0.1227    1.9817    0.2697 H   0  0  0  0  0  0  0  0  0  0  0  0
   -1.1304    0.2779   -1.2925 H   0  0  0  0  0  0  0  0  0  0  0  0
    1.3493    0.2249    1.5572 H   0  0  0  0  0  0  0  0  0  0  0  0
    2.1156   -0.8584    0.3880 H   0  0  0  0  0  0  0  0  0  0  0  0
    1.1960   -1.5367    1.7103 H   0  0  0  0  0  0  0  0  0  0  0  0
   -2.2481   -2.3096   -1.3975 H   0  0  0  0  0  0  0  0  0  0  0  0
   -4.8857   -2.8359   -0.9219 H   0  0  0  0  0  0  0  0  0  0  0  0
   -5.4339   -1.7746    1.3084 H   0  0  0  0  0  0  0  0  0  0  0  0
   -2.1749    0.5677    3.8496 H   0  0  0  0  0  0  0  0  0  0  0  0
    0.8319    3.9782    0.7464 H   0  0  0  0  0  0  0  0  0  0  0  0
    1.1636    2.7301    1.9750 H   0  0  0  0  0  0  0  0  0  0  0  0
  1  2  1  0
  2  3  1  0
  3  4  1  0
  4  5  1  0
  5  6  1  0
  6  7  1  0
  7  8  1  0
  8  9  1  0
  8 10  1  0
 10 11  2  0
 11 12  1  0
 12 13  2  0
 13 14  1  0
 14 15  1  0
 15 16  2  0
 16 17  1  0
 17 18  2  0
  5 19  1  0
 19 20  2  0
 19 21  1  0
 21 22  1  0
 22 23  3  0
  7  2  1  0
 18 10  1  0
 15 11  1  0
  1 24  1  0
  1 25  1  0
  1 26  1  0
  2 27  1  6
  3 28  1  0
  3 29  1  0
  4 30  1  0
  4 31  1  0
  6 32  1  0
  6 33  1  0
  7 34  1  6
  9 35  1  0
  9 36  1  0
  9 37  1  0
 12 38  1  0
 13 39  1  0
 14 40  1  0
 17 41  1  0
 21 42  1  0
 21 43  1  0
M  END
>  <energy_abs>  (56) 
14.452149632571494

>  <SMILES>  (56) 
C[C@@H]1CCN(C[C@@H]1N(C)c2c3cc[nH]c3ncn2)C(=O)CC#N

>  <cluster_no>  (56) 
56

>  <fda_drugs_id>  (56) 
UJLAWZDWDVHWOW-YPMHNXCESA-N

>  <initial_conformation_id>  (56) 
178

>  <minimize_method>  (56) 
MMFF

$$$$

     RDKit          3D

 43 45  0  0  0  0  0  0  0  0999 V2000
    1.1031   -1.5827   -3.2624 C   0  0  0  0  0  0  0  0  0  0  0  0
    1.3119   -0.5210   -2.1851 C   0  0  2  0  0  0  0  0  0  0  0  0
    2.4873   -0.8575   -1.2525 C   0  0  0  0  0  0  0  0  0  0  0  0
    2.4484   -0.1021    0.0822 C   0  0  0  0  0  0  0  0  0  0  0  0
    1.7914    1.2019   -0.0192 N   0  0  0  0  0  0  0  0  0  0  0  0
    0.4785    1.2386   -0.6863 C   0  0  0  0  0  0  0  0  0  0  0  0
    0.0565   -0.1011   -1.3776 C   0  0  2  0  0  0  0  0  0  0  0  0
   -0.3708   -1.1416   -0.3942 N   0  0  0  0  0  0  0  0  0  0  0  0
   -0.8526   -2.4186   -0.9184 C   0  0  0  0  0  0  0  0  0  0  0  0
   -1.3074   -0.6627    0.5478 C   0  0  0  0  0  0  0  0  0  0  0  0
   -2.6257   -0.2433    0.2609 C   0  0  0  0  0  0  0  0  0  0  0  0
   -3.4605   -0.1391   -0.8909 C   0  0  0  0  0  0  0  0  0  0  0  0
   -4.6791    0.3661   -0.4876 C   0  0  0  0  0  0  0  0  0  0  0  0
   -4.6160    0.5719    0.8666 N   0  0  0  0  0  0  0  0  0  0  0  0
   -3.3836    0.2049    1.3324 C   0  0  0  0  0  0  0  0  0  0  0  0
   -3.0069    0.2819    2.6153 N   0  0  0  0  0  0  0  0  0  0  0  0
   -1.7425   -0.1392    2.7763 C   0  0  0  0  0  0  0  0  0  0  0  0
   -0.8928   -0.5991    1.8381 N   0  0  0  0  0  0  0  0  0  0  0  0
    2.1508    2.3380    0.7075 C   0  0  0  0  0  0  0  0  0  0  0  0
    1.5016    3.3813    0.6156 O   0  0  0  0  0  0  0  0  0  0  0  0
    3.3796    2.2310    1.5861 C   0  0  0  0  0  0  0  0  0  0  0  0
    3.6115    3.4431    2.3770 C   0  0  0  0  0  0  0  0  0  0  0  0
    3.8595    4.3678    3.0345 N   0  0  0  0  0  0  0  0  0  0  0  0
    1.0615   -2.5966   -2.8617 H   0  0  0  0  0  0  0  0  0  0  0  0
    0.1874   -1.3910   -3.8307 H   0  0  0  0  0  0  0  0  0  0  0  0
    1.9403   -1.5641   -3.9699 H   0  0  0  0  0  0  0  0  0  0  0  0
    1.6131    0.3734   -2.7534 H   0  0  0  0  0  0  0  0  0  0  0  0
    3.4203   -0.6121   -1.7764 H   0  0  0  0  0  0  0  0  0  0  0  0
    2.5320   -1.9331   -1.0427 H   0  0  0  0  0  0  0  0  0  0  0  0
    1.9103   -0.6790    0.8422 H   0  0  0  0  0  0  0  0  0  0  0  0
    3.4724    0.0004    0.4506 H   0  0  0  0  0  0  0  0  0  0  0  0
   -0.2677    1.5945    0.0318 H   0  0  0  0  0  0  0  0  0  0  0  0
    0.5472    2.0229   -1.4527 H   0  0  0  0  0  0  0  0  0  0  0  0
   -0.7682    0.1131   -2.0686 H   0  0  0  0  0  0  0  0  0  0  0  0
   -1.4622   -2.9720   -0.1915 H   0  0  0  0  0  0  0  0  0  0  0  0
   -0.0013   -3.0706   -1.1290 H   0  0  0  0  0  0  0  0  0  0  0  0
   -1.4405   -2.2914   -1.8338 H   0  0  0  0  0  0  0  0  0  0  0  0
   -3.1996   -0.4040   -1.9065 H   0  0  0  0  0  0  0  0  0  0  0  0
   -5.5793    0.5972   -1.0420 H   0  0  0  0  0  0  0  0  0  0  0  0
   -5.3506    0.9387    1.4548 H   0  0  0  0  0  0  0  0  0  0  0  0
   -1.3546   -0.1058    3.7898 H   0  0  0  0  0  0  0  0  0  0  0  0
    3.2547    1.3832    2.2682 H   0  0  0  0  0  0  0  0  0  0  0  0
    4.2494    2.0485    0.9461 H   0  0  0  0  0  0  0  0  0  0  0  0
  1  2  1  0
  2  3  1  0
  3  4  1  0
  4  5  1  0
  5  6  1  0
  6  7  1  0
  7  8  1  0
  8  9  1  0
  8 10  1  0
 10 11  2  0
 11 12  1  0
 12 13  2  0
 13 14  1  0
 14 15  1  0
 15 16  2  0
 16 17  1  0
 17 18  2  0
  5 19  1  0
 19 20  2  0
 19 21  1  0
 21 22  1  0
 22 23  3  0
  7  2  1  0
 18 10  1  0
 15 11  1  0
  1 24  1  0
  1 25  1  0
  1 26  1  0
  2 27  1  6
  3 28  1  0
  3 29  1  0
  4 30  1  0
  4 31  1  0
  6 32  1  0
  6 33  1  0
  7 34  1  6
  9 35  1  0
  9 36  1  0
  9 37  1  0
 12 38  1  0
 13 39  1  0
 14 40  1  0
 17 41  1  0
 21 42  1  0
 21 43  1  0
M  END
>  <energy_abs>  (57) 
20.29123978055898

>  <SMILES>  (57) 
C[C@@H]1CCN(C[C@@H]1N(C)c2c3cc[nH]c3ncn2)C(=O)CC#N

>  <cluster_no>  (57) 
57

>  <fda_drugs_id>  (57) 
UJLAWZDWDVHWOW-YPMHNXCESA-N

>  <initial_conformation_id>  (57) 
160

>  <minimize_method>  (57) 
MMFF

$$$$

     RDKit          3D

 43 45  0  0  0  0  0  0  0  0999 V2000
    1.4352    0.9244   -2.9313 C   0  0  0  0  0  0  0  0  0  0  0  0
    0.3926    1.8276   -2.2522 C   0  0  2  0  0  0  0  0  0  0  0  0
    1.0513    3.1603   -1.8237 C   0  0  0  0  0  0  0  0  0  0  0  0
    1.2713    3.2984   -0.3170 C   0  0  0  0  0  0  0  0  0  0  0  0
    1.6600    2.0305    0.2843 N   0  0  0  0  0  0  0  0  0  0  0  0
    0.7449    0.9019    0.0724 C   0  0  0  0  0  0  0  0  0  0  0  0
   -0.3092    1.1420   -1.0476 C   0  0  2  0  0  0  0  0  0  0  0  0
   -1.0010   -0.1115   -1.4436 N   0  0  0  0  0  0  0  0  0  0  0  0
   -1.9837   -0.0138   -2.5241 C   0  0  0  0  0  0  0  0  0  0  0  0
   -1.5359   -0.7998   -0.3361 C   0  0  0  0  0  0  0  0  0  0  0  0
   -2.7036   -0.4491    0.3783 C   0  0  0  0  0  0  0  0  0  0  0  0
   -3.6939    0.5765    0.3258 C   0  0  0  0  0  0  0  0  0  0  0  0
   -4.5971    0.3495    1.3434 C   0  0  0  0  0  0  0  0  0  0  0  0
   -4.1909   -0.7733    2.0164 N   0  0  0  0  0  0  0  0  0  0  0  0
   -3.0438   -1.2596    1.4520 C   0  0  0  0  0  0  0  0  0  0  0  0
   -2.3862   -2.3400    1.8928 N   0  0  0  0  0  0  0  0  0  0  0  0
   -1.2903   -2.5764    1.1568 C   0  0  0  0  0  0  0  0  0  0  0  0
   -0.8293   -1.8717    0.1061 N   0  0  0  0  0  0  0  0  0  0  0  0
    2.7259    1.9975    1.1859 C   0  0  0  0  0  0  0  0  0  0  0  0
    3.3821    3.0069    1.4413 O   0  0  0  0  0  0  0  0  0  0  0  0
    3.0396    0.6506    1.8120 C   0  0  0  0  0  0  0  0  0  0  0  0
    4.1271    0.7291    2.7915 C   0  0  0  0  0  0  0  0  0  0  0  0
    4.9771    0.7184    3.5828 N   0  0  0  0  0  0  0  0  0  0  0  0
    2.2817    0.7080   -2.2721 H   0  0  0  0  0  0  0  0  0  0  0  0
    1.0000   -0.0280   -3.2477 H   0  0  0  0  0  0  0  0  0  0  0  0
    1.8333    1.4126   -3.8280 H   0  0  0  0  0  0  0  0  0  0  0  0
   -0.3563    2.0727   -3.0158 H   0  0  0  0  0  0  0  0  0  0  0  0
    2.0110    3.2891   -2.3401 H   0  0  0  0  0  0  0  0  0  0  0  0
    0.4231    3.9976   -2.1531 H   0  0  0  0  0  0  0  0  0  0  0  0
    0.3462    3.6192    0.1773 H   0  0  0  0  0  0  0  0  0  0  0  0
    2.0139    4.0806   -0.1287 H   0  0  0  0  0  0  0  0  0  0  0  0
    0.2397    0.7235    1.0291 H   0  0  0  0  0  0  0  0  0  0  0  0
    1.3460    0.0126   -0.1484 H   0  0  0  0  0  0  0  0  0  0  0  0
   -1.0609    1.8486   -0.6664 H   0  0  0  0  0  0  0  0  0  0  0  0
   -2.6674    0.8297   -2.3852 H   0  0  0  0  0  0  0  0  0  0  0  0
   -2.5708   -0.9350   -2.6261 H   0  0  0  0  0  0  0  0  0  0  0  0
   -1.4728    0.1258   -3.4824 H   0  0  0  0  0  0  0  0  0  0  0  0
   -3.7431    1.3971   -0.3767 H   0  0  0  0  0  0  0  0  0  0  0  0
   -5.4867    0.8864    1.6456 H   0  0  0  0  0  0  0  0  0  0  0  0
   -4.6450   -1.1935    2.8149 H   0  0  0  0  0  0  0  0  0  0  0  0
   -0.6978   -3.4396    1.4448 H   0  0  0  0  0  0  0  0  0  0  0  0
    3.3227   -0.0454    1.0153 H   0  0  0  0  0  0  0  0  0  0  0  0
    2.1427    0.2691    2.3106 H   0  0  0  0  0  0  0  0  0  0  0  0
  1  2  1  0
  2  3  1  0
  3  4  1  0
  4  5  1  0
  5  6  1  0
  6  7  1  0
  7  8  1  0
  8  9  1  0
  8 10  1  0
 10 11  2  0
 11 12  1  0
 12 13  2  0
 13 14  1  0
 14 15  1  0
 15 16  2  0
 16 17  1  0
 17 18  2  0
  5 19  1  0
 19 20  2  0
 19 21  1  0
 21 22  1  0
 22 23  3  0
  7  2  1  0
 18 10  1  0
 15 11  1  0
  1 24  1  0
  1 25  1  0
  1 26  1  0
  2 27  1  6
  3 28  1  0
  3 29  1  0
  4 30  1  0
  4 31  1  0
  6 32  1  0
  6 33  1  0
  7 34  1  1
  9 35  1  0
  9 36  1  0
  9 37  1  0
 12 38  1  0
 13 39  1  0
 14 40  1  0
 17 41  1  0
 21 42  1  0
 21 43  1  0
M  END
>  <energy_abs>  (58) 
18.421783533037217

>  <SMILES>  (58) 
C[C@@H]1CCN(C[C@@H]1N(C)c2c3cc[nH]c3ncn2)C(=O)CC#N

>  <cluster_no>  (58) 
58

>  <fda_drugs_id>  (58) 
UJLAWZDWDVHWOW-YPMHNXCESA-N

>  <initial_conformation_id>  (58) 
157

>  <minimize_method>  (58) 
MMFF

$$$$

     RDKit          3D

 43 45  0  0  0  0  0  0  0  0999 V2000
    1.2514   -2.3546   -0.1985 C   0  0  0  0  0  0  0  0  0  0  0  0
    0.8617   -0.9366   -0.6417 C   0  0  2  0  0  0  0  0  0  0  0  0
    1.9131   -0.3743   -1.6232 C   0  0  0  0  0  0  0  0  0  0  0  0
    3.2244   -0.0099   -0.9301 C   0  0  0  0  0  0  0  0  0  0  0  0
    2.9708    0.9055    0.1794 N   0  0  0  0  0  0  0  0  0  0  0  0
    2.0308    0.3864    1.1853 C   0  0  0  0  0  0  0  0  0  0  0  0
    0.6499    0.0617    0.5444 C   0  0  2  0  0  0  0  0  0  0  0  0
   -0.3239   -0.4519    1.5422 N   0  0  0  0  0  0  0  0  0  0  0  0
   -0.5072    0.3347    2.7645 C   0  0  0  0  0  0  0  0  0  0  0  0
   -1.6036   -0.7123    0.9964 C   0  0  0  0  0  0  0  0  0  0  0  0
   -2.4559    0.2312    0.3766 C   0  0  0  0  0  0  0  0  0  0  0  0
   -2.4363    1.6289    0.0870 C   0  0  0  0  0  0  0  0  0  0  0  0
   -3.6119    1.9474   -0.5608 C   0  0  0  0  0  0  0  0  0  0  0  0
   -4.3498    0.7980   -0.6709 N   0  0  0  0  0  0  0  0  0  0  0  0
   -3.6705   -0.2435   -0.0996 C   0  0  0  0  0  0  0  0  0  0  0  0
   -4.1354   -1.4985   -0.0303 N   0  0  0  0  0  0  0  0  0  0  0  0
   -3.2619   -2.3042    0.5931 C   0  0  0  0  0  0  0  0  0  0  0  0
   -2.0566   -1.9884    1.1032 N   0  0  0  0  0  0  0  0  0  0  0  0
    3.3770    2.2299    0.0546 C   0  0  0  0  0  0  0  0  0  0  0  0
    3.9981    2.6332   -0.9338 O   0  0  0  0  0  0  0  0  0  0  0  0
    3.0869    3.1965    1.1801 C   0  0  0  0  0  0  0  0  0  0  0  0
    1.7021    3.6549    1.1244 C   0  0  0  0  0  0  0  0  0  0  0  0
    0.5891    3.9843    1.1238 N   0  0  0  0  0  0  0  0  0  0  0  0
    1.3868   -3.0007   -1.0728 H   0  0  0  0  0  0  0  0  0  0  0  0
    2.1823   -2.3764    0.3729 H   0  0  0  0  0  0  0  0  0  0  0  0
    0.4744   -2.8109    0.4202 H   0  0  0  0  0  0  0  0  0  0  0  0
   -0.0769   -1.0267   -1.2025 H   0  0  0  0  0  0  0  0  0  0  0  0
    2.1078   -1.0928   -2.4275 H   0  0  0  0  0  0  0  0  0  0  0  0
    1.5004    0.5256   -2.0970 H   0  0  0  0  0  0  0  0  0  0  0  0
    3.9124    0.4278   -1.6571 H   0  0  0  0  0  0  0  0  0  0  0  0
    3.7160   -0.8976   -0.5225 H   0  0  0  0  0  0  0  0  0  0  0  0
    1.9167    1.1059    1.9959 H   0  0  0  0  0  0  0  0  0  0  0  0
    2.4796   -0.5080    1.6320 H   0  0  0  0  0  0  0  0  0  0  0  0
    0.2780    1.0026    0.1202 H   0  0  0  0  0  0  0  0  0  0  0  0
   -0.7042    1.3900    2.5499 H   0  0  0  0  0  0  0  0  0  0  0  0
    0.3931    0.2753    3.3849 H   0  0  0  0  0  0  0  0  0  0  0  0
   -1.3230   -0.0587    3.3852 H   0  0  0  0  0  0  0  0  0  0  0  0
   -1.6501    2.3332    0.3289 H   0  0  0  0  0  0  0  0  0  0  0  0
   -3.9842    2.8881   -0.9471 H   0  0  0  0  0  0  0  0  0  0  0  0
   -5.2626    0.7081   -1.0944 H   0  0  0  0  0  0  0  0  0  0  0  0
   -3.5634   -3.3417    0.7028 H   0  0  0  0  0  0  0  0  0  0  0  0
    3.3312    2.7365    2.1415 H   0  0  0  0  0  0  0  0  0  0  0  0
    3.7643    4.0518    1.0742 H   0  0  0  0  0  0  0  0  0  0  0  0
  1  2  1  0
  2  3  1  0
  3  4  1  0
  4  5  1  0
  5  6  1  0
  6  7  1  0
  7  8  1  0
  8  9  1  0
  8 10  1  0
 10 11  2  0
 11 12  1  0
 12 13  2  0
 13 14  1  0
 14 15  1  0
 15 16  2  0
 16 17  1  0
 17 18  2  0
  5 19  1  0
 19 20  2  0
 19 21  1  0
 21 22  1  0
 22 23  3  0
  7  2  1  0
 18 10  1  0
 15 11  1  0
  1 24  1  0
  1 25  1  0
  1 26  1  0
  2 27  1  6
  3 28  1  0
  3 29  1  0
  4 30  1  0
  4 31  1  0
  6 32  1  0
  6 33  1  0
  7 34  1  6
  9 35  1  0
  9 36  1  0
  9 37  1  0
 12 38  1  0
 13 39  1  0
 14 40  1  0
 17 41  1  0
 21 42  1  0
 21 43  1  0
M  END
>  <energy_abs>  (59) 
15.39036260617457

>  <SMILES>  (59) 
C[C@@H]1CCN(C[C@@H]1N(C)c2c3cc[nH]c3ncn2)C(=O)CC#N

>  <cluster_no>  (59) 
59

>  <fda_drugs_id>  (59) 
UJLAWZDWDVHWOW-YPMHNXCESA-N

>  <initial_conformation_id>  (59) 
142

>  <minimize_method>  (59) 
MMFF

$$$$

     RDKit          3D

 43 45  0  0  0  0  0  0  0  0999 V2000
    0.4950   -2.1610   -1.1306 C   0  0  0  0  0  0  0  0  0  0  0  0
    1.2573   -0.9159   -0.6783 C   0  0  2  0  0  0  0  0  0  0  0  0
    2.4947   -1.2900    0.1437 C   0  0  0  0  0  0  0  0  0  0  0  0
    3.1749   -0.1069    0.8292 C   0  0  0  0  0  0  0  0  0  0  0  0
    2.6935    1.1927    0.3724 N   0  0  0  0  0  0  0  0  0  0  0  0
    1.2365    1.3926    0.4296 C   0  0  0  0  0  0  0  0  0  0  0  0
    0.3811    0.1787   -0.0298 C   0  0  2  0  0  0  0  0  0  0  0  0
   -0.5186   -0.2588    1.0621 N   0  0  0  0  0  0  0  0  0  0  0  0
    0.0077   -0.9787    2.2139 C   0  0  0  0  0  0  0  0  0  0  0  0
   -1.8046   -0.6714    0.6845 C   0  0  0  0  0  0  0  0  0  0  0  0
   -2.7195    0.1512   -0.0123 C   0  0  0  0  0  0  0  0  0  0  0  0
   -2.7547    1.4966   -0.4892 C   0  0  0  0  0  0  0  0  0  0  0  0
   -3.9743    1.7022   -1.0995 C   0  0  0  0  0  0  0  0  0  0  0  0
   -4.6897    0.5375   -0.9959 N   0  0  0  0  0  0  0  0  0  0  0  0
   -3.9529   -0.4006   -0.3265 C   0  0  0  0  0  0  0  0  0  0  0  0
   -4.3886   -1.6330   -0.0345 N   0  0  0  0  0  0  0  0  0  0  0  0
   -3.4678   -2.3175    0.6599 C   0  0  0  0  0  0  0  0  0  0  0  0
   -2.2382   -1.9140    1.0344 N   0  0  0  0  0  0  0  0  0  0  0  0
    3.6035    2.2539    0.4338 C   0  0  0  0  0  0  0  0  0  0  0  0
    4.7860    2.0838    0.7434 O   0  0  0  0  0  0  0  0  0  0  0  0
    3.1334    3.6427    0.0609 C   0  0  0  0  0  0  0  0  0  0  0  0
    2.5103    4.3028    1.2049 C   0  0  0  0  0  0  0  0  0  0  0  0
    1.9774    4.8315    2.0902 N   0  0  0  0  0  0  0  0  0  0  0  0
   -0.3719   -1.8891   -1.7415 H   0  0  0  0  0  0  0  0  0  0  0  0
    0.1508   -2.7624   -0.2849 H   0  0  0  0  0  0  0  0  0  0  0  0
    1.1407   -2.8010   -1.7421 H   0  0  0  0  0  0  0  0  0  0  0  0
    1.6462   -0.4625   -1.6040 H   0  0  0  0  0  0  0  0  0  0  0  0
    3.2200   -1.7668   -0.5298 H   0  0  0  0  0  0  0  0  0  0  0  0
    2.2652   -2.0548    0.8939 H   0  0  0  0  0  0  0  0  0  0  0  0
    3.0168   -0.1467    1.9130 H   0  0  0  0  0  0  0  0  0  0  0  0
    4.2574   -0.1926    0.6800 H   0  0  0  0  0  0  0  0  0  0  0  0
    0.9712    2.2447   -0.2030 H   0  0  0  0  0  0  0  0  0  0  0  0
    0.9921    1.6901    1.4567 H   0  0  0  0  0  0  0  0  0  0  0  0
   -0.2366    0.5664   -0.8496 H   0  0  0  0  0  0  0  0  0  0  0  0
    0.9057   -0.4903    2.5994 H   0  0  0  0  0  0  0  0  0  0  0  0
   -0.7128   -0.9716    3.0414 H   0  0  0  0  0  0  0  0  0  0  0  0
    0.2508   -2.0196    1.9797 H   0  0  0  0  0  0  0  0  0  0  0  0
   -1.9740    2.2375   -0.3831 H   0  0  0  0  0  0  0  0  0  0  0  0
   -4.3978    2.5734   -1.5815 H   0  0  0  0  0  0  0  0  0  0  0  0
   -5.6287    0.3771   -1.3308 H   0  0  0  0  0  0  0  0  0  0  0  0
   -3.7459   -3.3237    0.9578 H   0  0  0  0  0  0  0  0  0  0  0  0
    4.0095    4.2151   -0.2670 H   0  0  0  0  0  0  0  0  0  0  0  0
    2.4677    3.6017   -0.8056 H   0  0  0  0  0  0  0  0  0  0  0  0
  1  2  1  0
  2  3  1  0
  3  4  1  0
  4  5  1  0
  5  6  1  0
  6  7  1  0
  7  8  1  0
  8  9  1  0
  8 10  1  0
 10 11  2  0
 11 12  1  0
 12 13  2  0
 13 14  1  0
 14 15  1  0
 15 16  2  0
 16 17  1  0
 17 18  2  0
  5 19  1  0
 19 20  2  0
 19 21  1  0
 21 22  1  0
 22 23  3  0
  7  2  1  0
 18 10  1  0
 15 11  1  0
  1 24  1  0
  1 25  1  0
  1 26  1  0
  2 27  1  6
  3 28  1  0
  3 29  1  0
  4 30  1  0
  4 31  1  0
  6 32  1  0
  6 33  1  0
  7 34  1  6
  9 35  1  0
  9 36  1  0
  9 37  1  0
 12 38  1  0
 13 39  1  0
 14 40  1  0
 17 41  1  0
 21 42  1  0
 21 43  1  0
M  END
>  <energy_abs>  (60) 
18.7080105984243

>  <SMILES>  (60) 
C[C@@H]1CCN(C[C@@H]1N(C)c2c3cc[nH]c3ncn2)C(=O)CC#N

>  <cluster_no>  (60) 
60

>  <fda_drugs_id>  (60) 
UJLAWZDWDVHWOW-YPMHNXCESA-N

>  <initial_conformation_id>  (60) 
138

>  <minimize_method>  (60) 
MMFF

$$$$

     RDKit          3D

 43 45  0  0  0  0  0  0  0  0999 V2000
    0.9183   -1.5439    1.6907 C   0  0  0  0  0  0  0  0  0  0  0  0
    0.8306   -1.1986    0.2023 C   0  0  2  0  0  0  0  0  0  0  0  0
    2.2287   -1.2907   -0.4310 C   0  0  0  0  0  0  0  0  0  0  0  0
    3.1689   -0.2197    0.1207 C   0  0  0  0  0  0  0  0  0  0  0  0
    2.5342    1.0891    0.2832 N   0  0  0  0  0  0  0  0  0  0  0  0
    1.2643    1.2968   -0.4184 C   0  0  0  0  0  0  0  0  0  0  0  0
    0.2087    0.1770   -0.1742 C   0  0  2  0  0  0  0  0  0  0  0  0
   -0.9048    0.6479    0.6809 N   0  0  0  0  0  0  0  0  0  0  0  0
   -0.6326    1.1685    2.0187 C   0  0  0  0  0  0  0  0  0  0  0  0
   -2.1028   -0.0803    0.5956 C   0  0  0  0  0  0  0  0  0  0  0  0
   -2.8287   -0.2781   -0.6033 C   0  0  0  0  0  0  0  0  0  0  0  0
   -2.7308    0.1407   -1.9655 C   0  0  0  0  0  0  0  0  0  0  0  0
   -3.7904   -0.4038   -2.6605 C   0  0  0  0  0  0  0  0  0  0  0  0
   -4.5422   -1.1229   -1.7690 N   0  0  0  0  0  0  0  0  0  0  0  0
   -3.9878   -1.0375   -0.5215 C   0  0  0  0  0  0  0  0  0  0  0  0
   -4.5146   -1.6014    0.5729 N   0  0  0  0  0  0  0  0  0  0  0  0
   -3.7826   -1.3200    1.6595 C   0  0  0  0  0  0  0  0  0  0  0  0
   -2.6458   -0.6015    1.7313 N   0  0  0  0  0  0  0  0  0  0  0  0
    3.3343    2.1094    0.8068 C   0  0  0  0  0  0  0  0  0  0  0  0
    4.4664    1.8692    1.2284 O   0  0  0  0  0  0  0  0  0  0  0  0
    2.7476    3.5066    0.8338 C   0  0  0  0  0  0  0  0  0  0  0  0
    3.6652    4.4893    1.4178 C   0  0  0  0  0  0  0  0  0  0  0  0
    4.3381    5.3223    1.8670 N   0  0  0  0  0  0  0  0  0  0  0  0
    1.4224   -0.7650    2.2698 H   0  0  0  0  0  0  0  0  0  0  0  0
    1.4768   -2.4757    1.8365 H   0  0  0  0  0  0  0  0  0  0  0  0
   -0.0745   -1.7116    2.1164 H   0  0  0  0  0  0  0  0  0  0  0  0
    0.2069   -1.9787   -0.2557 H   0  0  0  0  0  0  0  0  0  0  0  0
    2.1355   -1.1668   -1.5181 H   0  0  0  0  0  0  0  0  0  0  0  0
    2.6673   -2.2832   -0.2741 H   0  0  0  0  0  0  0  0  0  0  0  0
    4.0275   -0.1033   -0.5520 H   0  0  0  0  0  0  0  0  0  0  0  0
    3.5674   -0.5260    1.0954 H   0  0  0  0  0  0  0  0  0  0  0  0
    1.5240    1.3182   -1.4857 H   0  0  0  0  0  0  0  0  0  0  0  0
    0.8373    2.2790   -0.2011 H   0  0  0  0  0  0  0  0  0  0  0  0
   -0.2023    0.0298   -1.1797 H   0  0  0  0  0  0  0  0  0  0  0  0
   -0.5728    0.3914    2.7863 H   0  0  0  0  0  0  0  0  0  0  0  0
   -1.4202    1.8728    2.3130 H   0  0  0  0  0  0  0  0  0  0  0  0
    0.3063    1.7269    2.0476 H   0  0  0  0  0  0  0  0  0  0  0  0
   -1.9736    0.7852   -2.3904 H   0  0  0  0  0  0  0  0  0  0  0  0
   -4.0802   -0.3308   -3.7004 H   0  0  0  0  0  0  0  0  0  0  0  0
   -5.3948   -1.6256   -1.9690 H   0  0  0  0  0  0  0  0  0  0  0  0
   -4.1492   -1.7206    2.5996 H   0  0  0  0  0  0  0  0  0  0  0  0
    1.8244    3.4905    1.4213 H   0  0  0  0  0  0  0  0  0  0  0  0
    2.5120    3.8074   -0.1926 H   0  0  0  0  0  0  0  0  0  0  0  0
  1  2  1  0
  2  3  1  0
  3  4  1  0
  4  5  1  0
  5  6  1  0
  6  7  1  0
  7  8  1  0
  8  9  1  0
  8 10  1  0
 10 11  2  0
 11 12  1  0
 12 13  2  0
 13 14  1  0
 14 15  1  0
 15 16  2  0
 16 17  1  0
 17 18  2  0
  5 19  1  0
 19 20  2  0
 19 21  1  0
 21 22  1  0
 22 23  3  0
  7  2  1  0
 18 10  1  0
 15 11  1  0
  1 24  1  0
  1 25  1  0
  1 26  1  0
  2 27  1  6
  3 28  1  0
  3 29  1  0
  4 30  1  0
  4 31  1  0
  6 32  1  0
  6 33  1  0
  7 34  1  6
  9 35  1  0
  9 36  1  0
  9 37  1  0
 12 38  1  0
 13 39  1  0
 14 40  1  0
 17 41  1  0
 21 42  1  0
 21 43  1  0
M  END
>  <energy_abs>  (61) 
19.451131694977374

>  <SMILES>  (61) 
C[C@@H]1CCN(C[C@@H]1N(C)c2c3cc[nH]c3ncn2)C(=O)CC#N

>  <cluster_no>  (61) 
61

>  <fda_drugs_id>  (61) 
UJLAWZDWDVHWOW-YPMHNXCESA-N

>  <initial_conformation_id>  (61) 
134

>  <minimize_method>  (61) 
MMFF

$$$$

     RDKit          3D

 43 45  0  0  0  0  0  0  0  0999 V2000
    1.4486   -2.3048    3.1123 C   0  0  0  0  0  0  0  0  0  0  0  0
    1.8811   -1.2334    2.1103 C   0  0  2  0  0  0  0  0  0  0  0  0
    1.6448    0.1736    2.6736 C   0  0  0  0  0  0  0  0  0  0  0  0
    1.9715    1.2775    1.6714 C   0  0  0  0  0  0  0  0  0  0  0  0
    1.3863    1.0480    0.3499 N   0  0  0  0  0  0  0  0  0  0  0  0
    1.6595   -0.2678   -0.2324 C   0  0  0  0  0  0  0  0  0  0  0  0
    1.2749   -1.4385    0.7006 C   0  0  2  0  0  0  0  0  0  0  0  0
   -0.1737   -1.7766    0.7284 N   0  0  0  0  0  0  0  0  0  0  0  0
   -0.5507   -3.0229    0.0733 C   0  0  0  0  0  0  0  0  0  0  0  0
   -1.1063   -0.7462    0.6263 C   0  0  0  0  0  0  0  0  0  0  0  0
   -1.7899   -0.3568   -0.5508 C   0  0  0  0  0  0  0  0  0  0  0  0
   -1.7974   -0.7282   -1.9294 C   0  0  0  0  0  0  0  0  0  0  0  0
   -2.7032    0.0770   -2.5876 C   0  0  0  0  0  0  0  0  0  0  0  0
   -3.2377    0.9361   -1.6653 N   0  0  0  0  0  0  0  0  0  0  0  0
   -2.6935    0.6915   -0.4346 C   0  0  0  0  0  0  0  0  0  0  0  0
   -3.0074    1.3758    0.6740 N   0  0  0  0  0  0  0  0  0  0  0  0
   -2.3335    0.9085    1.7339 C   0  0  0  0  0  0  0  0  0  0  0  0
   -1.4194   -0.0773    1.7671 N   0  0  0  0  0  0  0  0  0  0  0  0
    0.9626    2.0605   -0.5063 C   0  0  0  0  0  0  0  0  0  0  0  0
    0.8647    1.8909   -1.7251 O   0  0  0  0  0  0  0  0  0  0  0  0
    0.5718    3.3918    0.0913 C   0  0  0  0  0  0  0  0  0  0  0  0
    1.7351    4.2699    0.1845 C   0  0  0  0  0  0  0  0  0  0  0  0
    2.6542    4.9699    0.3007 N   0  0  0  0  0  0  0  0  0  0  0  0
    1.6491   -3.3073    2.7206 H   0  0  0  0  0  0  0  0  0  0  0  0
    0.3817   -2.2345    3.3471 H   0  0  0  0  0  0  0  0  0  0  0  0
    2.0018   -2.1976    4.0516 H   0  0  0  0  0  0  0  0  0  0  0  0
    2.9703   -1.3360    1.9935 H   0  0  0  0  0  0  0  0  0  0  0  0
    0.6127    0.2809    3.0149 H   0  0  0  0  0  0  0  0  0  0  0  0
    2.2639    0.3177    3.5682 H   0  0  0  0  0  0  0  0  0  0  0  0
    1.6608    2.2370    2.0887 H   0  0  0  0  0  0  0  0  0  0  0  0
    3.0573    1.3374    1.5260 H   0  0  0  0  0  0  0  0  0  0  0  0
    2.7392   -0.2978   -0.4295 H   0  0  0  0  0  0  0  0  0  0  0  0
    1.1647   -0.3831   -1.2023 H   0  0  0  0  0  0  0  0  0  0  0  0
    1.7866   -2.3196    0.2861 H   0  0  0  0  0  0  0  0  0  0  0  0
   -1.6227   -3.2303    0.1704 H   0  0  0  0  0  0  0  0  0  0  0  0
   -0.0255   -3.8593    0.5484 H   0  0  0  0  0  0  0  0  0  0  0  0
   -0.2760   -3.0229   -0.9860 H   0  0  0  0  0  0  0  0  0  0  0  0
   -1.1920   -1.4887   -2.4015 H   0  0  0  0  0  0  0  0  0  0  0  0
   -2.9968    0.1232   -3.6278 H   0  0  0  0  0  0  0  0  0  0  0  0
   -3.9230    1.6557   -1.8432 H   0  0  0  0  0  0  0  0  0  0  0  0
   -2.5453    1.3871    2.6847 H   0  0  0  0  0  0  0  0  0  0  0  0
    0.0836    3.2494    1.0598 H   0  0  0  0  0  0  0  0  0  0  0  0
   -0.1880    3.8404   -0.5596 H   0  0  0  0  0  0  0  0  0  0  0  0
  1  2  1  0
  2  3  1  0
  3  4  1  0
  4  5  1  0
  5  6  1  0
  6  7  1  0
  7  8  1  0
  8  9  1  0
  8 10  1  0
 10 11  2  0
 11 12  1  0
 12 13  2  0
 13 14  1  0
 14 15  1  0
 15 16  2  0
 16 17  1  0
 17 18  2  0
  5 19  1  0
 19 20  2  0
 19 21  1  0
 21 22  1  0
 22 23  3  0
  7  2  1  0
 18 10  1  0
 15 11  1  0
  1 24  1  0
  1 25  1  0
  1 26  1  0
  2 27  1  6
  3 28  1  0
  3 29  1  0
  4 30  1  0
  4 31  1  0
  6 32  1  0
  6 33  1  0
  7 34  1  6
  9 35  1  0
  9 36  1  0
  9 37  1  0
 12 38  1  0
 13 39  1  0
 14 40  1  0
 17 41  1  0
 21 42  1  0
 21 43  1  0
M  END
>  <energy_abs>  (62) 
14.211520389172573

>  <SMILES>  (62) 
C[C@@H]1CCN(C[C@@H]1N(C)c2c3cc[nH]c3ncn2)C(=O)CC#N

>  <cluster_no>  (62) 
62

>  <fda_drugs_id>  (62) 
UJLAWZDWDVHWOW-YPMHNXCESA-N

>  <initial_conformation_id>  (62) 
125

>  <minimize_method>  (62) 
MMFF

$$$$

     RDKit          3D

 43 45  0  0  0  0  0  0  0  0999 V2000
   -0.0158   -0.5298    3.4718 C   0  0  0  0  0  0  0  0  0  0  0  0
    1.1561   -0.8885    2.5539 C   0  0  2  0  0  0  0  0  0  0  0  0
    2.3267    0.0789    2.8778 C   0  0  0  0  0  0  0  0  0  0  0  0
    3.0952    0.5608    1.6528 C   0  0  0  0  0  0  0  0  0  0  0  0
    2.1925    1.1901    0.6911 N   0  0  0  0  0  0  0  0  0  0  0  0
    0.9171    0.5080    0.4305 C   0  0  0  0  0  0  0  0  0  0  0  0
    0.8462   -0.9138    1.0301 C   0  0  2  0  0  0  0  0  0  0  0  0
   -0.3287   -1.7088    0.5936 N   0  0  0  0  0  0  0  0  0  0  0  0
   -0.4164   -3.0797    1.0912 C   0  0  0  0  0  0  0  0  0  0  0  0
   -1.5748   -1.0825    0.5417 C   0  0  0  0  0  0  0  0  0  0  0  0
   -2.0457   -0.4494   -0.6275 C   0  0  0  0  0  0  0  0  0  0  0  0
   -1.5742   -0.2509   -1.9585 C   0  0  0  0  0  0  0  0  0  0  0  0
   -2.5271    0.4754   -2.6417 C   0  0  0  0  0  0  0  0  0  0  0  0
   -3.5697    0.7064   -1.7804 N   0  0  0  0  0  0  0  0  0  0  0  0
   -3.2983    0.1408   -0.5645 C   0  0  0  0  0  0  0  0  0  0  0  0
   -4.1280    0.1649    0.4866 N   0  0  0  0  0  0  0  0  0  0  0  0
   -3.6082   -0.5041    1.5275 C   0  0  0  0  0  0  0  0  0  0  0  0
   -2.4115   -1.1199    1.6077 N   0  0  0  0  0  0  0  0  0  0  0  0
    2.6053    2.3440    0.0227 C   0  0  0  0  0  0  0  0  0  0  0  0
    3.7293    2.8157    0.1921 O   0  0  0  0  0  0  0  0  0  0  0  0
    1.6049    2.9692   -0.9323 C   0  0  0  0  0  0  0  0  0  0  0  0
    2.0080    4.3111   -1.3617 C   0  0  0  0  0  0  0  0  0  0  0  0
    2.2592    5.3806   -1.7383 N   0  0  0  0  0  0  0  0  0  0  0  0
    0.3280   -0.3994    4.5046 H   0  0  0  0  0  0  0  0  0  0  0  0
   -0.7621   -1.3255    3.5026 H   0  0  0  0  0  0  0  0  0  0  0  0
   -0.4999    0.4015    3.1616 H   0  0  0  0  0  0  0  0  0  0  0  0
    1.4822   -1.8981    2.8397 H   0  0  0  0  0  0  0  0  0  0  0  0
    3.0180   -0.4128    3.5731 H   0  0  0  0  0  0  0  0  0  0  0  0
    1.9469    0.9662    3.4021 H   0  0  0  0  0  0  0  0  0  0  0  0
    3.8766    1.2611    1.9661 H   0  0  0  0  0  0  0  0  0  0  0  0
    3.5949   -0.2738    1.1476 H   0  0  0  0  0  0  0  0  0  0  0  0
    0.7928    0.4591   -0.6544 H   0  0  0  0  0  0  0  0  0  0  0  0
    0.1234    1.1460    0.8354 H   0  0  0  0  0  0  0  0  0  0  0  0
    1.6941   -1.4507    0.5779 H   0  0  0  0  0  0  0  0  0  0  0  0
    0.5482   -3.5849    0.9692 H   0  0  0  0  0  0  0  0  0  0  0  0
   -0.6909   -3.1301    2.1493 H   0  0  0  0  0  0  0  0  0  0  0  0
   -1.1501   -3.6562    0.5151 H   0  0  0  0  0  0  0  0  0  0  0  0
   -0.6405   -0.6141   -2.3680 H   0  0  0  0  0  0  0  0  0  0  0  0
   -2.5627    0.8308   -3.6633 H   0  0  0  0  0  0  0  0  0  0  0  0
   -4.4274    1.1958   -1.9927 H   0  0  0  0  0  0  0  0  0  0  0  0
   -4.2268   -0.5555    2.4185 H   0  0  0  0  0  0  0  0  0  0  0  0
    1.5123    2.3187   -1.8085 H   0  0  0  0  0  0  0  0  0  0  0  0
    0.6283    3.0379   -0.4424 H   0  0  0  0  0  0  0  0  0  0  0  0
  1  2  1  0
  2  3  1  0
  3  4  1  0
  4  5  1  0
  5  6  1  0
  6  7  1  0
  7  8  1  0
  8  9  1  0
  8 10  1  0
 10 11  2  0
 11 12  1  0
 12 13  2  0
 13 14  1  0
 14 15  1  0
 15 16  2  0
 16 17  1  0
 17 18  2  0
  5 19  1  0
 19 20  2  0
 19 21  1  0
 21 22  1  0
 22 23  3  0
  7  2  1  0
 18 10  1  0
 15 11  1  0
  1 24  1  0
  1 25  1  0
  1 26  1  0
  2 27  1  1
  3 28  1  0
  3 29  1  0
  4 30  1  0
  4 31  1  0
  6 32  1  0
  6 33  1  0
  7 34  1  6
  9 35  1  0
  9 36  1  0
  9 37  1  0
 12 38  1  0
 13 39  1  0
 14 40  1  0
 17 41  1  0
 21 42  1  0
 21 43  1  0
M  END
>  <energy_abs>  (63) 
20.314465141109807

>  <SMILES>  (63) 
C[C@@H]1CCN(C[C@@H]1N(C)c2c3cc[nH]c3ncn2)C(=O)CC#N

>  <cluster_no>  (63) 
63

>  <fda_drugs_id>  (63) 
UJLAWZDWDVHWOW-YPMHNXCESA-N

>  <initial_conformation_id>  (63) 
122

>  <minimize_method>  (63) 
MMFF

$$$$

     RDKit          3D

 43 45  0  0  0  0  0  0  0  0999 V2000
    0.5156    0.8293    3.6212 C   0  0  0  0  0  0  0  0  0  0  0  0
    1.1421   -0.2413    2.7132 C   0  0  2  0  0  0  0  0  0  0  0  0
    2.6539    0.0308    2.5365 C   0  0  0  0  0  0  0  0  0  0  0  0
    3.0351    0.5886    1.1660 C   0  0  0  0  0  0  0  0  0  0  0  0
    2.0229    1.5142    0.6739 N   0  0  0  0  0  0  0  0  0  0  0  0
    0.6665    0.9620    0.5393 C   0  0  0  0  0  0  0  0  0  0  0  0
    0.4302   -0.3581    1.3347 C   0  0  2  0  0  0  0  0  0  0  0  0
   -1.0217   -0.6649    1.4890 N   0  0  0  0  0  0  0  0  0  0  0  0
   -1.3276   -1.9136    2.2012 C   0  0  0  0  0  0  0  0  0  0  0  0
   -1.6834   -0.7503    0.2373 C   0  0  0  0  0  0  0  0  0  0  0  0
   -2.9983   -0.2790    0.0641 C   0  0  0  0  0  0  0  0  0  0  0  0
   -3.9816    0.3534    0.8777 C   0  0  0  0  0  0  0  0  0  0  0  0
   -5.0974    0.5708    0.0960 C   0  0  0  0  0  0  0  0  0  0  0  0
   -4.8225    0.0972   -1.1624 N   0  0  0  0  0  0  0  0  0  0  0  0
   -3.5564   -0.4204   -1.1959 C   0  0  0  0  0  0  0  0  0  0  0  0
   -2.9812   -0.9626   -2.2781 N   0  0  0  0  0  0  0  0  0  0  0  0
   -1.7314   -1.3736   -2.0070 C   0  0  0  0  0  0  0  0  0  0  0  0
   -1.0634   -1.3046   -0.8367 N   0  0  0  0  0  0  0  0  0  0  0  0
    2.2700    2.7393    0.0638 C   0  0  0  0  0  0  0  0  0  0  0  0
    1.3752    3.3737   -0.5017 O   0  0  0  0  0  0  0  0  0  0  0  0
    3.6618    3.3232    0.1302 C   0  0  0  0  0  0  0  0  0  0  0  0
    4.5135    2.7412   -0.9044 C   0  0  0  0  0  0  0  0  0  0  0  0
    5.2201    2.2631   -1.6918 N   0  0  0  0  0  0  0  0  0  0  0  0
    0.6320    1.8366    3.2093 H   0  0  0  0  0  0  0  0  0  0  0  0
    0.9944    0.8190    4.6067 H   0  0  0  0  0  0  0  0  0  0  0  0
   -0.5519    0.6481    3.7791 H   0  0  0  0  0  0  0  0  0  0  0  0
    1.0562   -1.1950    3.2483 H   0  0  0  0  0  0  0  0  0  0  0  0
    3.2112   -0.9020    2.6902 H   0  0  0  0  0  0  0  0  0  0  0  0
    3.0057    0.7187    3.3157 H   0  0  0  0  0  0  0  0  0  0  0  0
    4.0232    1.0477    1.2288 H   0  0  0  0  0  0  0  0  0  0  0  0
    3.1159   -0.2212    0.4304 H   0  0  0  0  0  0  0  0  0  0  0  0
   -0.0458    1.7359    0.8533 H   0  0  0  0  0  0  0  0  0  0  0  0
    0.4988    0.7982   -0.5318 H   0  0  0  0  0  0  0  0  0  0  0  0
    0.9180   -1.1839    0.7956 H   0  0  0  0  0  0  0  0  0  0  0  0
   -0.7963   -2.7688    1.7665 H   0  0  0  0  0  0  0  0  0  0  0  0
   -1.0427   -1.8318    3.2546 H   0  0  0  0  0  0  0  0  0  0  0  0
   -2.4027   -2.1332    2.2021 H   0  0  0  0  0  0  0  0  0  0  0  0
   -3.8706    0.6213    1.9205 H   0  0  0  0  0  0  0  0  0  0  0  0
   -6.0534    1.0240    0.3219 H   0  0  0  0  0  0  0  0  0  0  0  0
   -5.4399    0.1209   -1.9608 H   0  0  0  0  0  0  0  0  0  0  0  0
   -1.1885   -1.8200   -2.8348 H   0  0  0  0  0  0  0  0  0  0  0  0
    3.5804    4.4065   -0.0189 H   0  0  0  0  0  0  0  0  0  0  0  0
    4.0804    3.1913    1.1323 H   0  0  0  0  0  0  0  0  0  0  0  0
  1  2  1  0
  2  3  1  0
  3  4  1  0
  4  5  1  0
  5  6  1  0
  6  7  1  0
  7  8  1  0
  8  9  1  0
  8 10  1  0
 10 11  2  0
 11 12  1  0
 12 13  2  0
 13 14  1  0
 14 15  1  0
 15 16  2  0
 16 17  1  0
 17 18  2  0
  5 19  1  0
 19 20  2  0
 19 21  1  0
 21 22  1  0
 22 23  3  0
  7  2  1  0
 18 10  1  0
 15 11  1  0
  1 24  1  0
  1 25  1  0
  1 26  1  0
  2 27  1  1
  3 28  1  0
  3 29  1  0
  4 30  1  0
  4 31  1  0
  6 32  1  0
  6 33  1  0
  7 34  1  6
  9 35  1  0
  9 36  1  0
  9 37  1  0
 12 38  1  0
 13 39  1  0
 14 40  1  0
 17 41  1  0
 21 42  1  0
 21 43  1  0
M  END
>  <energy_abs>  (64) 
14.772526562450107

>  <SMILES>  (64) 
C[C@@H]1CCN(C[C@@H]1N(C)c2c3cc[nH]c3ncn2)C(=O)CC#N

>  <cluster_no>  (64) 
64

>  <fda_drugs_id>  (64) 
UJLAWZDWDVHWOW-YPMHNXCESA-N

>  <initial_conformation_id>  (64) 
97

>  <minimize_method>  (64) 
MMFF

$$$$

     RDKit          3D

 43 45  0  0  0  0  0  0  0  0999 V2000
    0.0430   -0.8652    2.9993 C   0  0  0  0  0  0  0  0  0  0  0  0
    0.8169   -0.0058    2.0035 C   0  0  2  0  0  0  0  0  0  0  0  0
    1.6602    1.0714    2.6916 C   0  0  0  0  0  0  0  0  0  0  0  0
    2.6902    1.6445    1.7151 C   0  0  0  0  0  0  0  0  0  0  0  0
    2.2197    1.7091    0.3297 N   0  0  0  0  0  0  0  0  0  0  0  0
    0.7681    1.7588    0.1297 C   0  0  0  0  0  0  0  0  0  0  0  0
    0.0003    0.5957    0.8232 C   0  0  2  0  0  0  0  0  0  0  0  0
   -1.3771    1.0349    1.1431 N   0  0  0  0  0  0  0  0  0  0  0  0
   -1.6234    2.0173    2.1930 C   0  0  0  0  0  0  0  0  0  0  0  0
   -2.3948    0.0826    1.0061 C   0  0  0  0  0  0  0  0  0  0  0  0
   -2.6534   -0.6323   -0.1865 C   0  0  0  0  0  0  0  0  0  0  0  0
   -2.1394   -0.6573   -1.5188 C   0  0  0  0  0  0  0  0  0  0  0  0
   -2.8478   -1.6004   -2.2336 C   0  0  0  0  0  0  0  0  0  0  0  0
   -3.7858   -2.1378   -1.3918 N   0  0  0  0  0  0  0  0  0  0  0  0
   -3.6935   -1.5504   -0.1599 C   0  0  0  0  0  0  0  0  0  0  0  0
   -4.4985   -1.8357    0.8721 N   0  0  0  0  0  0  0  0  0  0  0  0
   -4.2000   -1.0799    1.9386 C   0  0  0  0  0  0  0  0  0  0  0  0
   -3.2276   -0.1553    2.0580 N   0  0  0  0  0  0  0  0  0  0  0  0
    3.0483    2.0330   -0.7505 C   0  0  0  0  0  0  0  0  0  0  0  0
    2.5897    2.2367   -1.8740 O   0  0  0  0  0  0  0  0  0  0  0  0
    4.5379    2.0910   -0.4683 C   0  0  0  0  0  0  0  0  0  0  0  0
    5.3145    2.5151   -1.6368 C   0  0  0  0  0  0  0  0  0  0  0  0
    5.9948    2.8483   -2.5168 N   0  0  0  0  0  0  0  0  0  0  0  0
   -0.6255   -0.2798    3.6329 H   0  0  0  0  0  0  0  0  0  0  0  0
    0.7391   -1.3845    3.6681 H   0  0  0  0  0  0  0  0  0  0  0  0
   -0.5410   -1.6336    2.4832 H   0  0  0  0  0  0  0  0  0  0  0  0
    1.5380   -0.6996    1.5423 H   0  0  0  0  0  0  0  0  0  0  0  0
    2.1852    0.6658    3.5646 H   0  0  0  0  0  0  0  0  0  0  0  0
    1.0192    1.8758    3.0669 H   0  0  0  0  0  0  0  0  0  0  0  0
    3.5910    1.0221    1.7392 H   0  0  0  0  0  0  0  0  0  0  0  0
    2.9816    2.6539    2.0266 H   0  0  0  0  0  0  0  0  0  0  0  0
    0.5160    1.7517   -0.9370 H   0  0  0  0  0  0  0  0  0  0  0  0
    0.4517    2.7405    0.4984 H   0  0  0  0  0  0  0  0  0  0  0  0
   -0.0349   -0.2104    0.0806 H   0  0  0  0  0  0  0  0  0  0  0  0
   -1.5794    1.5855    3.1966 H   0  0  0  0  0  0  0  0  0  0  0  0
   -2.6083    2.4828    2.0629 H   0  0  0  0  0  0  0  0  0  0  0  0
   -0.8990    2.8352    2.1539 H   0  0  0  0  0  0  0  0  0  0  0  0
   -1.3422   -0.0414   -1.9144 H   0  0  0  0  0  0  0  0  0  0  0  0
   -2.7736   -1.9230   -3.2638 H   0  0  0  0  0  0  0  0  0  0  0  0
   -4.4692   -2.8431   -1.6262 H   0  0  0  0  0  0  0  0  0  0  0  0
   -4.8184   -1.2312    2.8179 H   0  0  0  0  0  0  0  0  0  0  0  0
    4.8706    1.0950   -0.1574 H   0  0  0  0  0  0  0  0  0  0  0  0
    4.7199    2.7948    0.3504 H   0  0  0  0  0  0  0  0  0  0  0  0
  1  2  1  0
  2  3  1  0
  3  4  1  0
  4  5  1  0
  5  6  1  0
  6  7  1  0
  7  8  1  0
  8  9  1  0
  8 10  1  0
 10 11  2  0
 11 12  1  0
 12 13  2  0
 13 14  1  0
 14 15  1  0
 15 16  2  0
 16 17  1  0
 17 18  2  0
  5 19  1  0
 19 20  2  0
 19 21  1  0
 21 22  1  0
 22 23  3  0
  7  2  1  0
 18 10  1  0
 15 11  1  0
  1 24  1  0
  1 25  1  0
  1 26  1  0
  2 27  1  6
  3 28  1  0
  3 29  1  0
  4 30  1  0
  4 31  1  0
  6 32  1  0
  6 33  1  0
  7 34  1  6
  9 35  1  0
  9 36  1  0
  9 37  1  0
 12 38  1  0
 13 39  1  0
 14 40  1  0
 17 41  1  0
 21 42  1  0
 21 43  1  0
M  END
>  <energy_abs>  (65) 
18.32255996601654

>  <SMILES>  (65) 
C[C@@H]1CCN(C[C@@H]1N(C)c2c3cc[nH]c3ncn2)C(=O)CC#N

>  <cluster_no>  (65) 
65

>  <fda_drugs_id>  (65) 
UJLAWZDWDVHWOW-YPMHNXCESA-N

>  <initial_conformation_id>  (65) 
88

>  <minimize_method>  (65) 
MMFF

$$$$

     RDKit          3D

 43 45  0  0  0  0  0  0  0  0999 V2000
    0.1290    0.7845    3.1556 C   0  0  0  0  0  0  0  0  0  0  0  0
    0.1561   -0.0185    1.8524 C   0  0  2  0  0  0  0  0  0  0  0  0
    1.4938   -0.7677    1.7080 C   0  0  0  0  0  0  0  0  0  0  0  0
    2.6684    0.1597    1.4091 C   0  0  0  0  0  0  0  0  0  0  0  0
    2.4134    1.0334    0.2625 N   0  0  0  0  0  0  0  0  0  0  0  0
    1.1223    1.7389    0.2674 C   0  0  0  0  0  0  0  0  0  0  0  0
   -0.0806    0.8107    0.5604 C   0  0  2  0  0  0  0  0  0  0  0  0
   -1.3856    1.5126    0.4942 N   0  0  0  0  0  0  0  0  0  0  0  0
   -1.5282    2.8497    1.0638 C   0  0  0  0  0  0  0  0  0  0  0  0
   -2.5163    0.7032    0.6871 C   0  0  0  0  0  0  0  0  0  0  0  0
   -2.8529   -0.3877   -0.1465 C   0  0  0  0  0  0  0  0  0  0  0  0
   -2.3435   -0.9837   -1.3393 C   0  0  0  0  0  0  0  0  0  0  0  0
   -3.1534   -2.0522   -1.6641 C   0  0  0  0  0  0  0  0  0  0  0  0
   -4.1465   -2.1187   -0.7221 N   0  0  0  0  0  0  0  0  0  0  0  0
   -3.9877   -1.1119    0.1903 C   0  0  0  0  0  0  0  0  0  0  0  0
   -4.8164   -0.8910    1.2194 N   0  0  0  0  0  0  0  0  0  0  0  0
   -4.4315    0.1818    1.9262 C   0  0  0  0  0  0  0  0  0  0  0  0
   -3.3605    0.9729    1.7217 N   0  0  0  0  0  0  0  0  0  0  0  0
    3.4432    1.6160   -0.4930 C   0  0  0  0  0  0  0  0  0  0  0  0
    3.2408    2.6050   -1.1971 O   0  0  0  0  0  0  0  0  0  0  0  0
    4.8069    0.9581   -0.4103 C   0  0  0  0  0  0  0  0  0  0  0  0
    5.7752    1.5527   -1.3363 C   0  0  0  0  0  0  0  0  0  0  0  0
    6.5961    1.9707   -2.0435 N   0  0  0  0  0  0  0  0  0  0  0  0
    0.7765    1.6648    3.1199 H   0  0  0  0  0  0  0  0  0  0  0  0
   -0.8867    1.1151    3.3895 H   0  0  0  0  0  0  0  0  0  0  0  0
    0.4562    0.1647    3.9979 H   0  0  0  0  0  0  0  0  0  0  0  0
   -0.6246   -0.7854    1.9377 H   0  0  0  0  0  0  0  0  0  0  0  0
    1.7059   -1.3491    2.6133 H   0  0  0  0  0  0  0  0  0  0  0  0
    1.4010   -1.4927    0.8883 H   0  0  0  0  0  0  0  0  0  0  0  0
    2.8887    0.8049    2.2674 H   0  0  0  0  0  0  0  0  0  0  0  0
    3.5569   -0.4528    1.2362 H   0  0  0  0  0  0  0  0  0  0  0  0
    0.9643    2.2262   -0.7023 H   0  0  0  0  0  0  0  0  0  0  0  0
    1.2096    2.5369    1.0138 H   0  0  0  0  0  0  0  0  0  0  0  0
   -0.0674    0.0886   -0.2659 H   0  0  0  0  0  0  0  0  0  0  0  0
   -2.4976    3.2907    0.7983 H   0  0  0  0  0  0  0  0  0  0  0  0
   -0.7779    3.5301    0.6493 H   0  0  0  0  0  0  0  0  0  0  0  0
   -1.4310    2.8582    2.1524 H   0  0  0  0  0  0  0  0  0  0  0  0
   -1.4849   -0.6536   -1.9086 H   0  0  0  0  0  0  0  0  0  0  0  0
   -3.1175   -2.7552   -2.4858 H   0  0  0  0  0  0  0  0  0  0  0  0
   -4.9061   -2.7835   -0.6958 H   0  0  0  0  0  0  0  0  0  0  0  0
   -5.0596    0.4461    2.7713 H   0  0  0  0  0  0  0  0  0  0  0  0
    5.1824    1.0584    0.6136 H   0  0  0  0  0  0  0  0  0  0  0  0
    4.6981   -0.1055   -0.6481 H   0  0  0  0  0  0  0  0  0  0  0  0
  1  2  1  0
  2  3  1  0
  3  4  1  0
  4  5  1  0
  5  6  1  0
  6  7  1  0
  7  8  1  0
  8  9  1  0
  8 10  1  0
 10 11  2  0
 11 12  1  0
 12 13  2  0
 13 14  1  0
 14 15  1  0
 15 16  2  0
 16 17  1  0
 17 18  2  0
  5 19  1  0
 19 20  2  0
 19 21  1  0
 21 22  1  0
 22 23  3  0
  7  2  1  0
 18 10  1  0
 15 11  1  0
  1 24  1  0
  1 25  1  0
  1 26  1  0
  2 27  1  1
  3 28  1  0
  3 29  1  0
  4 30  1  0
  4 31  1  0
  6 32  1  0
  6 33  1  0
  7 34  1  6
  9 35  1  0
  9 36  1  0
  9 37  1  0
 12 38  1  0
 13 39  1  0
 14 40  1  0
 17 41  1  0
 21 42  1  0
 21 43  1  0
M  END
>  <energy_abs>  (66) 
13.500290721611027

>  <SMILES>  (66) 
C[C@@H]1CCN(C[C@@H]1N(C)c2c3cc[nH]c3ncn2)C(=O)CC#N

>  <cluster_no>  (66) 
66

>  <fda_drugs_id>  (66) 
UJLAWZDWDVHWOW-YPMHNXCESA-N

>  <initial_conformation_id>  (66) 
74

>  <minimize_method>  (66) 
MMFF

$$$$

     RDKit          3D

 43 45  0  0  0  0  0  0  0  0999 V2000
   -0.2639   -0.4421   -3.1905 C   0  0  0  0  0  0  0  0  0  0  0  0
    0.7138    0.4205   -2.3898 C   0  0  2  0  0  0  0  0  0  0  0  0
    2.0845   -0.2544   -2.2884 C   0  0  0  0  0  0  0  0  0  0  0  0
    3.0674    0.5586   -1.4521 C   0  0  0  0  0  0  0  0  0  0  0  0
    2.5263    0.9575   -0.1527 N   0  0  0  0  0  0  0  0  0  0  0  0
    1.2122    1.6224   -0.1972 C   0  0  0  0  0  0  0  0  0  0  0  0
    0.1468    0.8577   -1.0152 C   0  0  2  0  0  0  0  0  0  0  0  0
   -0.4935   -0.2728   -0.2870 N   0  0  0  0  0  0  0  0  0  0  0  0
    0.3234   -1.1368    0.5648 C   0  0  0  0  0  0  0  0  0  0  0  0
   -1.6447    0.1233    0.4318 C   0  0  0  0  0  0  0  0  0  0  0  0
   -2.7388   -0.7418    0.6384 C   0  0  0  0  0  0  0  0  0  0  0  0
   -3.0882   -2.0725    0.2653 C   0  0  0  0  0  0  0  0  0  0  0  0
   -4.3350   -2.3448    0.7889 C   0  0  0  0  0  0  0  0  0  0  0  0
   -4.7582   -1.2244    1.4577 N   0  0  0  0  0  0  0  0  0  0  0  0
   -3.8066   -0.2453    1.3692 C   0  0  0  0  0  0  0  0  0  0  0  0
   -3.9206    0.9770    1.9060 N   0  0  0  0  0  0  0  0  0  0  0  0
   -2.8378    1.7246    1.6412 C   0  0  0  0  0  0  0  0  0  0  0  0
   -1.7311    1.3771    0.9523 N   0  0  0  0  0  0  0  0  0  0  0  0
    3.4479    1.1601    0.8776 C   0  0  0  0  0  0  0  0  0  0  0  0
    4.6414    0.8725    0.7492 O   0  0  0  0  0  0  0  0  0  0  0  0
    2.9615    1.7083    2.2015 C   0  0  0  0  0  0  0  0  0  0  0  0
    2.9075    3.1679    2.1612 C   0  0  0  0  0  0  0  0  0  0  0  0
    2.8280    4.3257    2.1337 N   0  0  0  0  0  0  0  0  0  0  0  0
   -0.4132   -1.4233   -2.7280 H   0  0  0  0  0  0  0  0  0  0  0  0
   -1.2385    0.0500   -3.2743 H   0  0  0  0  0  0  0  0  0  0  0  0
    0.1137   -0.6087   -4.2051 H   0  0  0  0  0  0  0  0  0  0  0  0
    0.8657    1.3434   -2.9693 H   0  0  0  0  0  0  0  0  0  0  0  0
    1.9857   -1.2617   -1.8726 H   0  0  0  0  0  0  0  0  0  0  0  0
    2.5041   -0.3883   -3.2934 H   0  0  0  0  0  0  0  0  0  0  0  0
    3.9855   -0.0249   -1.3225 H   0  0  0  0  0  0  0  0  0  0  0  0
    3.3443    1.4789   -1.9813 H   0  0  0  0  0  0  0  0  0  0  0  0
    1.3876    2.6018   -0.6613 H   0  0  0  0  0  0  0  0  0  0  0  0
    0.8431    1.8206    0.8095 H   0  0  0  0  0  0  0  0  0  0  0  0
   -0.6406    1.5848   -1.2661 H   0  0  0  0  0  0  0  0  0  0  0  0
   -0.2242   -2.0385    0.8619 H   0  0  0  0  0  0  0  0  0  0  0  0
    0.6463   -0.6233    1.4778 H   0  0  0  0  0  0  0  0  0  0  0  0
    1.2128   -1.4929    0.0448 H   0  0  0  0  0  0  0  0  0  0  0  0
   -2.4867   -2.7483   -0.3289 H   0  0  0  0  0  0  0  0  0  0  0  0
   -4.9564   -3.2290    0.7374 H   0  0  0  0  0  0  0  0  0  0  0  0
   -5.6378   -1.1097    1.9401 H   0  0  0  0  0  0  0  0  0  0  0  0
   -2.8527    2.7377    2.0324 H   0  0  0  0  0  0  0  0  0  0  0  0
    3.6660    1.3832    2.9766 H   0  0  0  0  0  0  0  0  0  0  0  0
    2.0001    1.2647    2.4734 H   0  0  0  0  0  0  0  0  0  0  0  0
  1  2  1  0
  2  3  1  0
  3  4  1  0
  4  5  1  0
  5  6  1  0
  6  7  1  0
  7  8  1  0
  8  9  1  0
  8 10  1  0
 10 11  2  0
 11 12  1  0
 12 13  2  0
 13 14  1  0
 14 15  1  0
 15 16  2  0
 16 17  1  0
 17 18  2  0
  5 19  1  0
 19 20  2  0
 19 21  1  0
 21 22  1  0
 22 23  3  0
  7  2  1  0
 18 10  1  0
 15 11  1  0
  1 24  1  0
  1 25  1  0
  1 26  1  0
  2 27  1  6
  3 28  1  0
  3 29  1  0
  4 30  1  0
  4 31  1  0
  6 32  1  0
  6 33  1  0
  7 34  1  6
  9 35  1  0
  9 36  1  0
  9 37  1  0
 12 38  1  0
 13 39  1  0
 14 40  1  0
 17 41  1  0
 21 42  1  0
 21 43  1  0
M  END
>  <energy_abs>  (67) 
7.038018785585653

>  <SMILES>  (67) 
C[C@@H]1CCN(C[C@@H]1N(C)c2c3cc[nH]c3ncn2)C(=O)CC#N

>  <cluster_no>  (67) 
67

>  <fda_drugs_id>  (67) 
UJLAWZDWDVHWOW-YPMHNXCESA-N

>  <initial_conformation_id>  (67) 
64

>  <minimize_method>  (67) 
MMFF

$$$$

     RDKit          3D

 43 45  0  0  0  0  0  0  0  0999 V2000
    0.5193    0.4412    2.7221 C   0  0  0  0  0  0  0  0  0  0  0  0
    0.7176   -0.4831    1.5123 C   0  0  2  0  0  0  0  0  0  0  0  0
    2.1313   -1.0811    1.4993 C   0  0  0  0  0  0  0  0  0  0  0  0
    3.2062   -0.0459    1.1939 C   0  0  0  0  0  0  0  0  0  0  0  0
    2.9282    0.7019   -0.0311 N   0  0  0  0  0  0  0  0  0  0  0  0
    1.5627    1.2395   -0.1564 C   0  0  0  0  0  0  0  0  0  0  0  0
    0.4410    0.2077    0.1446 C   0  0  2  0  0  0  0  0  0  0  0  0
   -0.9152    0.8301    0.1273 N   0  0  0  0  0  0  0  0  0  0  0  0
   -1.2213    1.6977   -1.0168 C   0  0  0  0  0  0  0  0  0  0  0  0
   -1.9519   -0.1365    0.1959 C   0  0  0  0  0  0  0  0  0  0  0  0
   -3.1608    0.1215    0.8722 C   0  0  0  0  0  0  0  0  0  0  0  0
   -3.7143    1.2024    1.6174 C   0  0  0  0  0  0  0  0  0  0  0  0
   -4.9734    0.8245    2.0353 C   0  0  0  0  0  0  0  0  0  0  0  0
   -5.2001   -0.4479    1.5746 N   0  0  0  0  0  0  0  0  0  0  0  0
   -4.1111   -0.8867    0.8719 C   0  0  0  0  0  0  0  0  0  0  0  0
   -4.0104   -2.0919    0.2948 N   0  0  0  0  0  0  0  0  0  0  0  0
   -2.8232   -2.2374   -0.3162 C   0  0  0  0  0  0  0  0  0  0  0  0
   -1.8109   -1.3499   -0.3992 N   0  0  0  0  0  0  0  0  0  0  0  0
    4.0333    1.2873   -0.6591 C   0  0  0  0  0  0  0  0  0  0  0  0
    5.1864    1.0947   -0.2634 O   0  0  0  0  0  0  0  0  0  0  0  0
    3.8094    2.1372   -1.8901 C   0  0  0  0  0  0  0  0  0  0  0  0
    3.4612    3.5062   -1.5186 C   0  0  0  0  0  0  0  0  0  0  0  0
    3.1381    4.5869   -1.2447 N   0  0  0  0  0  0  0  0  0  0  0  0
   -0.5215    0.7693    2.8030 H   0  0  0  0  0  0  0  0  0  0  0  0
    0.7636   -0.0873    3.6500 H   0  0  0  0  0  0  0  0  0  0  0  0
    1.1466    1.3356    2.6748 H   0  0  0  0  0  0  0  0  0  0  0  0
    0.0213   -1.3214    1.6413 H   0  0  0  0  0  0  0  0  0  0  0  0
    2.1710   -1.8689    0.7355 H   0  0  0  0  0  0  0  0  0  0  0  0
    2.3491   -1.5648    2.4588 H   0  0  0  0  0  0  0  0  0  0  0  0
    3.3022    0.6792    2.0103 H   0  0  0  0  0  0  0  0  0  0  0  0
    4.1715   -0.5579    1.1076 H   0  0  0  0  0  0  0  0  0  0  0  0
    1.4248    1.6143   -1.1724 H   0  0  0  0  0  0  0  0  0  0  0  0
    1.4907    2.1071    0.5106 H   0  0  0  0  0  0  0  0  0  0  0  0
    0.5133   -0.5519   -0.6479 H   0  0  0  0  0  0  0  0  0  0  0  0
   -2.2589    2.0537   -1.0032 H   0  0  0  0  0  0  0  0  0  0  0  0
   -1.0405    1.1857   -1.9696 H   0  0  0  0  0  0  0  0  0  0  0  0
   -0.5999    2.5986   -0.9836 H   0  0  0  0  0  0  0  0  0  0  0  0
   -3.2314    2.1490    1.8234 H   0  0  0  0  0  0  0  0  0  0  0  0
   -5.7202    1.3447    2.6204 H   0  0  0  0  0  0  0  0  0  0  0  0
   -6.0322   -1.0003    1.7225 H   0  0  0  0  0  0  0  0  0  0  0  0
   -2.6562   -3.1910   -0.8079 H   0  0  0  0  0  0  0  0  0  0  0  0
    3.0533    1.6790   -2.5343 H   0  0  0  0  0  0  0  0  0  0  0  0
    4.7379    2.1339   -2.4735 H   0  0  0  0  0  0  0  0  0  0  0  0
  1  2  1  0
  2  3  1  0
  3  4  1  0
  4  5  1  0
  5  6  1  0
  6  7  1  0
  7  8  1  0
  8  9  1  0
  8 10  1  0
 10 11  2  0
 11 12  1  0
 12 13  2  0
 13 14  1  0
 14 15  1  0
 15 16  2  0
 16 17  1  0
 17 18  2  0
  5 19  1  0
 19 20  2  0
 19 21  1  0
 21 22  1  0
 22 23  3  0
  7  2  1  0
 18 10  1  0
 15 11  1  0
  1 24  1  0
  1 25  1  0
  1 26  1  0
  2 27  1  1
  3 28  1  0
  3 29  1  0
  4 30  1  0
  4 31  1  0
  6 32  1  0
  6 33  1  0
  7 34  1  6
  9 35  1  0
  9 36  1  0
  9 37  1  0
 12 38  1  0
 13 39  1  0
 14 40  1  0
 17 41  1  0
 21 42  1  0
 21 43  1  0
M  END
>  <energy_abs>  (68) 
10.221423150958799

>  <SMILES>  (68) 
C[C@@H]1CCN(C[C@@H]1N(C)c2c3cc[nH]c3ncn2)C(=O)CC#N

>  <cluster_no>  (68) 
68

>  <fda_drugs_id>  (68) 
UJLAWZDWDVHWOW-YPMHNXCESA-N

>  <initial_conformation_id>  (68) 
55

>  <minimize_method>  (68) 
MMFF

$$$$

     RDKit          3D

 43 45  0  0  0  0  0  0  0  0999 V2000
    1.4865   -0.4294    3.5119 C   0  0  0  0  0  0  0  0  0  0  0  0
    1.2651   -1.0125    2.1142 C   0  0  2  0  0  0  0  0  0  0  0  0
    2.6114   -1.3797    1.4632 C   0  0  0  0  0  0  0  0  0  0  0  0
    3.4133   -0.1555    1.0249 C   0  0  0  0  0  0  0  0  0  0  0  0
    2.6339    0.7449    0.1737 N   0  0  0  0  0  0  0  0  0  0  0  0
    1.3046    1.1158    0.6828 C   0  0  0  0  0  0  0  0  0  0  0  0
    0.4759   -0.1064    1.1322 C   0  0  2  0  0  0  0  0  0  0  0  0
   -0.8710    0.2185    1.6648 N   0  0  0  0  0  0  0  0  0  0  0  0
   -1.0481    1.4602    2.4229 C   0  0  0  0  0  0  0  0  0  0  0  0
   -1.8782    0.1563    0.6738 C   0  0  0  0  0  0  0  0  0  0  0  0
   -3.1981   -0.2387    0.9708 C   0  0  0  0  0  0  0  0  0  0  0  0
   -3.9092   -0.6778    2.1253 C   0  0  0  0  0  0  0  0  0  0  0  0
   -5.2138   -0.9224    1.7498 C   0  0  0  0  0  0  0  0  0  0  0  0
   -5.3172   -0.6553    0.4081 N   0  0  0  0  0  0  0  0  0  0  0  0
   -4.1052   -0.2454   -0.0767 C   0  0  0  0  0  0  0  0  0  0  0  0
   -3.8676    0.0837   -1.3536 N   0  0  0  0  0  0  0  0  0  0  0  0
   -2.5845    0.4351   -1.5323 C   0  0  0  0  0  0  0  0  0  0  0  0
   -1.5977    0.4946   -0.6138 N   0  0  0  0  0  0  0  0  0  0  0  0
    3.3381    1.5151   -0.7612 C   0  0  0  0  0  0  0  0  0  0  0  0
    4.5531    1.3856   -0.9122 O   0  0  0  0  0  0  0  0  0  0  0  0
    2.5295    2.4989   -1.5846 C   0  0  0  0  0  0  0  0  0  0  0  0
    3.3269    3.1419   -2.6331 C   0  0  0  0  0  0  0  0  0  0  0  0
    3.8944    3.6909   -3.4848 N   0  0  0  0  0  0  0  0  0  0  0  0
    2.1355   -1.0842    4.1041 H   0  0  0  0  0  0  0  0  0  0  0  0
    0.5402   -0.3504    4.0557 H   0  0  0  0  0  0  0  0  0  0  0  0
    1.9513    0.5601    3.4826 H   0  0  0  0  0  0  0  0  0  0  0  0
    0.6976   -1.9436    2.2495 H   0  0  0  0  0  0  0  0  0  0  0  0
    3.2138   -1.9899    2.1463 H   0  0  0  0  0  0  0  0  0  0  0  0
    2.4142   -2.0036    0.5813 H   0  0  0  0  0  0  0  0  0  0  0  0
    4.3105   -0.4946    0.4953 H   0  0  0  0  0  0  0  0  0  0  0  0
    3.7523    0.4237    1.8916 H   0  0  0  0  0  0  0  0  0  0  0  0
    1.4786    1.8117    1.5116 H   0  0  0  0  0  0  0  0  0  0  0  0
    0.7480    1.6730   -0.0734 H   0  0  0  0  0  0  0  0  0  0  0  0
    0.3556   -0.7417    0.2401 H   0  0  0  0  0  0  0  0  0  0  0  0
   -1.0347    2.3427    1.7711 H   0  0  0  0  0  0  0  0  0  0  0  0
   -1.9937    1.4550    2.9769 H   0  0  0  0  0  0  0  0  0  0  0  0
   -0.2583    1.5905    3.1668 H   0  0  0  0  0  0  0  0  0  0  0  0
   -3.4991   -0.8041    3.1189 H   0  0  0  0  0  0  0  0  0  0  0  0
   -6.0695   -1.2678    2.3148 H   0  0  0  0  0  0  0  0  0  0  0  0
   -6.1468   -0.7477   -0.1601 H   0  0  0  0  0  0  0  0  0  0  0  0
   -2.3052    0.7090   -2.5454 H   0  0  0  0  0  0  0  0  0  0  0  0
    2.1306    3.2692   -0.9160 H   0  0  0  0  0  0  0  0  0  0  0  0
    1.6959    1.9647   -2.0531 H   0  0  0  0  0  0  0  0  0  0  0  0
  1  2  1  0
  2  3  1  0
  3  4  1  0
  4  5  1  0
  5  6  1  0
  6  7  1  0
  7  8  1  0
  8  9  1  0
  8 10  1  0
 10 11  2  0
 11 12  1  0
 12 13  2  0
 13 14  1  0
 14 15  1  0
 15 16  2  0
 16 17  1  0
 17 18  2  0
  5 19  1  0
 19 20  2  0
 19 21  1  0
 21 22  1  0
 22 23  3  0
  7  2  1  0
 18 10  1  0
 15 11  1  0
  1 24  1  0
  1 25  1  0
  1 26  1  0
  2 27  1  1
  3 28  1  0
  3 29  1  0
  4 30  1  0
  4 31  1  0
  6 32  1  0
  6 33  1  0
  7 34  1  6
  9 35  1  0
  9 36  1  0
  9 37  1  0
 12 38  1  0
 13 39  1  0
 14 40  1  0
 17 41  1  0
 21 42  1  0
 21 43  1  0
M  END
>  <energy_abs>  (69) 
11.036385870492818

>  <SMILES>  (69) 
C[C@@H]1CCN(C[C@@H]1N(C)c2c3cc[nH]c3ncn2)C(=O)CC#N

>  <cluster_no>  (69) 
69

>  <fda_drugs_id>  (69) 
UJLAWZDWDVHWOW-YPMHNXCESA-N

>  <initial_conformation_id>  (69) 
53

>  <minimize_method>  (69) 
MMFF

$$$$

     RDKit          3D

 43 45  0  0  0  0  0  0  0  0999 V2000
   -0.6515    2.4858    0.7824 C   0  0  0  0  0  0  0  0  0  0  0  0
   -0.1438    1.6726    1.9858 C   0  0  2  0  0  0  0  0  0  0  0  0
    0.9165    2.4857    2.7530 C   0  0  0  0  0  0  0  0  0  0  0  0
    2.1398    2.7733    1.8817 C   0  0  0  0  0  0  0  0  0  0  0  0
    2.4501    1.6631    0.9839 N   0  0  0  0  0  0  0  0  0  0  0  0
    1.9853    0.3438    1.4194 C   0  0  0  0  0  0  0  0  0  0  0  0
    0.4377    0.2562    1.6302 C   0  0  2  0  0  0  0  0  0  0  0  0
   -0.2818   -0.3864    0.4837 N   0  0  0  0  0  0  0  0  0  0  0  0
    0.2453   -1.6854    0.0366 C   0  0  0  0  0  0  0  0  0  0  0  0
   -1.6526   -0.6295    0.7953 C   0  0  0  0  0  0  0  0  0  0  0  0
   -2.6556   -0.5915   -0.1955 C   0  0  0  0  0  0  0  0  0  0  0  0
   -2.7122   -0.3255   -1.5943 C   0  0  0  0  0  0  0  0  0  0  0  0
   -4.0273   -0.4456   -1.9926 C   0  0  0  0  0  0  0  0  0  0  0  0
   -4.7698   -0.7686   -0.8849 N   0  0  0  0  0  0  0  0  0  0  0  0
   -3.9534   -0.8580    0.2095 C   0  0  0  0  0  0  0  0  0  0  0  0
   -4.3684   -1.1533    1.4488 N   0  0  0  0  0  0  0  0  0  0  0  0
   -3.3413   -1.1611    2.3137 C   0  0  0  0  0  0  0  0  0  0  0  0
   -2.0364   -0.9257    2.0651 N   0  0  0  0  0  0  0  0  0  0  0  0
    3.2843    1.9180   -0.1029 C   0  0  0  0  0  0  0  0  0  0  0  0
    3.7870    3.0297   -0.2700 O   0  0  0  0  0  0  0  0  0  0  0  0
    3.5327    0.7730   -1.0614 C   0  0  0  0  0  0  0  0  0  0  0  0
    4.2478    1.1955   -2.2689 C   0  0  0  0  0  0  0  0  0  0  0  0
    4.8096    1.4525   -3.2523 N   0  0  0  0  0  0  0  0  0  0  0  0
   -1.5985    2.0922    0.4051 H   0  0  0  0  0  0  0  0  0  0  0  0
    0.0609    2.4909   -0.0480 H   0  0  0  0  0  0  0  0  0  0  0  0
   -0.8423    3.5256    1.0706 H   0  0  0  0  0  0  0  0  0  0  0  0
   -0.9982    1.5342    2.6610 H   0  0  0  0  0  0  0  0  0  0  0  0
    0.4974    3.4288    3.1231 H   0  0  0  0  0  0  0  0  0  0  0  0
    1.2242    1.9192    3.6416 H   0  0  0  0  0  0  0  0  0  0  0  0
    1.9717    3.6768    1.2836 H   0  0  0  0  0  0  0  0  0  0  0  0
    3.0178    2.9598    2.5107 H   0  0  0  0  0  0  0  0  0  0  0  0
    2.3706   -0.4441    0.7759 H   0  0  0  0  0  0  0  0  0  0  0  0
    2.4745    0.1727    2.3887 H   0  0  0  0  0  0  0  0  0  0  0  0
    0.3239   -0.3898    2.5137 H   0  0  0  0  0  0  0  0  0  0  0  0
   -0.4262   -2.1977   -0.6642 H   0  0  0  0  0  0  0  0  0  0  0  0
    1.1785   -1.5451   -0.5162 H   0  0  0  0  0  0  0  0  0  0  0  0
    0.4378   -2.3553    0.8833 H   0  0  0  0  0  0  0  0  0  0  0  0
   -1.8751   -0.0675   -2.2300 H   0  0  0  0  0  0  0  0  0  0  0  0
   -4.4970   -0.3233   -2.9597 H   0  0  0  0  0  0  0  0  0  0  0  0
   -5.7681   -0.9164   -0.8541 H   0  0  0  0  0  0  0  0  0  0  0  0
   -3.5918   -1.3880    3.3457 H   0  0  0  0  0  0  0  0  0  0  0  0
    4.1210    0.0079   -0.5441 H   0  0  0  0  0  0  0  0  0  0  0  0
    2.5692    0.3444   -1.3561 H   0  0  0  0  0  0  0  0  0  0  0  0
  1  2  1  0
  2  3  1  0
  3  4  1  0
  4  5  1  0
  5  6  1  0
  6  7  1  0
  7  8  1  0
  8  9  1  0
  8 10  1  0
 10 11  2  0
 11 12  1  0
 12 13  2  0
 13 14  1  0
 14 15  1  0
 15 16  2  0
 16 17  1  0
 17 18  2  0
  5 19  1  0
 19 20  2  0
 19 21  1  0
 21 22  1  0
 22 23  3  0
  7  2  1  0
 18 10  1  0
 15 11  1  0
  1 24  1  0
  1 25  1  0
  1 26  1  0
  2 27  1  1
  3 28  1  0
  3 29  1  0
  4 30  1  0
  4 31  1  0
  6 32  1  0
  6 33  1  0
  7 34  1  1
  9 35  1  0
  9 36  1  0
  9 37  1  0
 12 38  1  0
 13 39  1  0
 14 40  1  0
 17 41  1  0
 21 42  1  0
 21 43  1  0
M  END
>  <energy_abs>  (70) 
19.158383776961184

>  <SMILES>  (70) 
C[C@@H]1CCN(C[C@@H]1N(C)c2c3cc[nH]c3ncn2)C(=O)CC#N

>  <cluster_no>  (70) 
70

>  <fda_drugs_id>  (70) 
UJLAWZDWDVHWOW-YPMHNXCESA-N

>  <initial_conformation_id>  (70) 
36

>  <minimize_method>  (70) 
MMFF

$$$$

     RDKit          3D

 43 45  0  0  0  0  0  0  0  0999 V2000
   -0.6594    1.9520   -2.6233 C   0  0  0  0  0  0  0  0  0  0  0  0
   -0.1138    2.3041   -1.2378 C   0  0  2  0  0  0  0  0  0  0  0  0
    1.3836    2.6144   -1.3017 C   0  0  0  0  0  0  0  0  0  0  0  0
    1.9436    2.9792    0.0695 C   0  0  0  0  0  0  0  0  0  0  0  0
    1.6216    1.9883    1.0996 N   0  0  0  0  0  0  0  0  0  0  0  0
    0.2046    1.6015    1.1874 C   0  0  0  0  0  0  0  0  0  0  0  0
   -0.4517    1.2390   -0.1636 C   0  0  2  0  0  0  0  0  0  0  0  0
   -0.1371   -0.1247   -0.6305 N   0  0  0  0  0  0  0  0  0  0  0  0
    1.1536   -0.7493   -0.3708 C   0  0  0  0  0  0  0  0  0  0  0  0
   -1.1550   -1.0787   -0.7330 C   0  0  0  0  0  0  0  0  0  0  0  0
   -2.2799   -1.2170    0.1163 C   0  0  0  0  0  0  0  0  0  0  0  0
   -2.7812   -0.6122    1.3104 C   0  0  0  0  0  0  0  0  0  0  0  0
   -3.9639   -1.2356    1.6497 C   0  0  0  0  0  0  0  0  0  0  0  0
   -4.1966   -2.2107    0.7179 N   0  0  0  0  0  0  0  0  0  0  0  0
   -3.1823   -2.2256   -0.1993 C   0  0  0  0  0  0  0  0  0  0  0  0
   -3.1116   -3.0951   -1.2155 N   0  0  0  0  0  0  0  0  0  0  0  0
   -2.0009   -2.9018   -1.9386 C   0  0  0  0  0  0  0  0  0  0  0  0
   -1.0418   -1.9775   -1.7517 N   0  0  0  0  0  0  0  0  0  0  0  0
    2.3881    1.8085    2.2540 C   0  0  0  0  0  0  0  0  0  0  0  0
    1.9355    1.2447    3.2542 O   0  0  0  0  0  0  0  0  0  0  0  0
    3.8252    2.2795    2.2587 C   0  0  0  0  0  0  0  0  0  0  0  0
    3.8967    3.6994    2.5945 C   0  0  0  0  0  0  0  0  0  0  0  0
    3.9650    4.8361    2.8199 N   0  0  0  0  0  0  0  0  0  0  0  0
   -0.5215    2.7911   -3.3137 H   0  0  0  0  0  0  0  0  0  0  0  0
   -1.7312    1.7330   -2.5756 H   0  0  0  0  0  0  0  0  0  0  0  0
   -0.1493    1.0838   -3.0533 H   0  0  0  0  0  0  0  0  0  0  0  0
   -0.6163    3.2326   -0.9287 H   0  0  0  0  0  0  0  0  0  0  0  0
    1.9319    1.7605   -1.7137 H   0  0  0  0  0  0  0  0  0  0  0  0
    1.5602    3.4505   -1.9896 H   0  0  0  0  0  0  0  0  0  0  0  0
    3.0232    3.1133   -0.0225 H   0  0  0  0  0  0  0  0  0  0  0  0
    1.5286    3.9371    0.4063 H   0  0  0  0  0  0  0  0  0  0  0  0
   -0.3176    2.4636    1.6227 H   0  0  0  0  0  0  0  0  0  0  0  0
    0.0831    0.7711    1.8917 H   0  0  0  0  0  0  0  0  0  0  0  0
   -1.5350    1.3265   -0.0217 H   0  0  0  0  0  0  0  0  0  0  0  0
    1.1999   -1.1388    0.6528 H   0  0  0  0  0  0  0  0  0  0  0  0
    1.9801   -0.0492   -0.5031 H   0  0  0  0  0  0  0  0  0  0  0  0
    1.3581   -1.5772   -1.0601 H   0  0  0  0  0  0  0  0  0  0  0  0
   -2.3267    0.1872    1.8779 H   0  0  0  0  0  0  0  0  0  0  0  0
   -4.6469   -1.0780    2.4740 H   0  0  0  0  0  0  0  0  0  0  0  0
   -4.9769   -2.8512    0.6988 H   0  0  0  0  0  0  0  0  0  0  0  0
   -1.8540   -3.5724   -2.7794 H   0  0  0  0  0  0  0  0  0  0  0  0
    4.3690    1.6906    3.0070 H   0  0  0  0  0  0  0  0  0  0  0  0
    4.3029    2.0553    1.3006 H   0  0  0  0  0  0  0  0  0  0  0  0
  1  2  1  0
  2  3  1  0
  3  4  1  0
  4  5  1  0
  5  6  1  0
  6  7  1  0
  7  8  1  0
  8  9  1  0
  8 10  1  0
 10 11  2  0
 11 12  1  0
 12 13  2  0
 13 14  1  0
 14 15  1  0
 15 16  2  0
 16 17  1  0
 17 18  2  0
  5 19  1  0
 19 20  2  0
 19 21  1  0
 21 22  1  0
 22 23  3  0
  7  2  1  0
 18 10  1  0
 15 11  1  0
  1 24  1  0
  1 25  1  0
  1 26  1  0
  2 27  1  1
  3 28  1  0
  3 29  1  0
  4 30  1  0
  4 31  1  0
  6 32  1  0
  6 33  1  0
  7 34  1  1
  9 35  1  0
  9 36  1  0
  9 37  1  0
 12 38  1  0
 13 39  1  0
 14 40  1  0
 17 41  1  0
 21 42  1  0
 21 43  1  0
M  END
>  <energy_abs>  (71) 
13.961607371946398

>  <SMILES>  (71) 
C[C@@H]1CCN(C[C@@H]1N(C)c2c3cc[nH]c3ncn2)C(=O)CC#N

>  <cluster_no>  (71) 
71

>  <fda_drugs_id>  (71) 
UJLAWZDWDVHWOW-YPMHNXCESA-N

>  <initial_conformation_id>  (71) 
288

>  <minimize_method>  (71) 
MMFF

$$$$

     RDKit          3D

 43 45  0  0  0  0  0  0  0  0999 V2000
   -0.0925    1.5962   -3.1564 C   0  0  0  0  0  0  0  0  0  0  0  0
    0.4264    1.7071   -1.7281 C   0  0  2  0  0  0  0  0  0  0  0  0
    1.5104    0.6671   -1.4182 C   0  0  0  0  0  0  0  0  0  0  0  0
    2.3022    1.0790   -0.1721 C   0  0  0  0  0  0  0  0  0  0  0  0
    1.4894    1.7902    0.8171 N   0  0  0  0  0  0  0  0  0  0  0  0
    0.0563    1.4876    0.7993 C   0  0  0  0  0  0  0  0  0  0  0  0
   -0.6189    1.7746   -0.5760 C   0  0  2  0  0  0  0  0  0  0  0  0
   -1.8728    0.9956   -0.7169 N   0  0  0  0  0  0  0  0  0  0  0  0
   -2.9042    1.5072   -1.6147 C   0  0  0  0  0  0  0  0  0  0  0  0
   -1.8139   -0.3962   -0.7290 C   0  0  0  0  0  0  0  0  0  0  0  0
   -2.1131   -1.1613    0.4179 C   0  0  0  0  0  0  0  0  0  0  0  0
   -2.4937   -0.8962    1.7658 C   0  0  0  0  0  0  0  0  0  0  0  0
   -2.6293   -2.1065    2.4148 C   0  0  0  0  0  0  0  0  0  0  0  0
   -2.3611   -3.0964    1.5024 N   0  0  0  0  0  0  0  0  0  0  0  0
   -2.0492   -2.5393    0.2910 C   0  0  0  0  0  0  0  0  0  0  0  0
   -1.7421   -3.2345   -0.8122 N   0  0  0  0  0  0  0  0  0  0  0  0
   -1.5120   -2.4141   -1.8520 C   0  0  0  0  0  0  0  0  0  0  0  0
   -1.5365   -1.0668   -1.8741 N   0  0  0  0  0  0  0  0  0  0  0  0
    2.0125    2.4932    1.9035 C   0  0  0  0  0  0  0  0  0  0  0  0
    1.2814    2.9811    2.7622 O   0  0  0  0  0  0  0  0  0  0  0  0
    3.5214    2.6397    1.9518 C   0  0  0  0  0  0  0  0  0  0  0  0
    3.9740    3.3706    3.1377 C   0  0  0  0  0  0  0  0  0  0  0  0
    4.4074    3.9402    4.0524 N   0  0  0  0  0  0  0  0  0  0  0  0
    0.7308    1.7456   -3.8670 H   0  0  0  0  0  0  0  0  0  0  0  0
   -0.5225    0.6208   -3.3796 H   0  0  0  0  0  0  0  0  0  0  0  0
   -0.8346    2.3720   -3.3644 H   0  0  0  0  0  0  0  0  0  0  0  0
    0.9410    2.6830   -1.7081 H   0  0  0  0  0  0  0  0  0  0  0  0
    2.2035    0.5542   -2.2576 H   0  0  0  0  0  0  0  0  0  0  0  0
    1.0573   -0.3166   -1.2595 H   0  0  0  0  0  0  0  0  0  0  0  0
    3.1308    1.7288   -0.4724 H   0  0  0  0  0  0  0  0  0  0  0  0
    2.7352    0.1951    0.3091 H   0  0  0  0  0  0  0  0  0  0  0  0
   -0.4818    2.0415    1.5769 H   0  0  0  0  0  0  0  0  0  0  0  0
   -0.0075    0.4315    1.0788 H   0  0  0  0  0  0  0  0  0  0  0  0
   -0.9250    2.8308   -0.5300 H   0  0  0  0  0  0  0  0  0  0  0  0
   -2.9491    2.6018   -1.5721 H   0  0  0  0  0  0  0  0  0  0  0  0
   -3.8907    1.1414   -1.3049 H   0  0  0  0  0  0  0  0  0  0  0  0
   -2.7491    1.2128   -2.6575 H   0  0  0  0  0  0  0  0  0  0  0  0
   -2.6417    0.0808    2.2073 H   0  0  0  0  0  0  0  0  0  0  0  0
   -2.8925   -2.3486    3.4349 H   0  0  0  0  0  0  0  0  0  0  0  0
   -2.3836   -4.0907    1.6729 H   0  0  0  0  0  0  0  0  0  0  0  0
   -1.2794   -2.8936   -2.7936 H   0  0  0  0  0  0  0  0  0  0  0  0
    3.9757    1.6415    1.9500 H   0  0  0  0  0  0  0  0  0  0  0  0
    3.8496    3.1792    1.0566 H   0  0  0  0  0  0  0  0  0  0  0  0
  1  2  1  0
  2  3  1  0
  3  4  1  0
  4  5  1  0
  5  6  1  0
  6  7  1  0
  7  8  1  0
  8  9  1  0
  8 10  1  0
 10 11  2  0
 11 12  1  0
 12 13  2  0
 13 14  1  0
 14 15  1  0
 15 16  2  0
 16 17  1  0
 17 18  2  0
  5 19  1  0
 19 20  2  0
 19 21  1  0
 21 22  1  0
 22 23  3  0
  7  2  1  0
 18 10  1  0
 15 11  1  0
  1 24  1  0
  1 25  1  0
  1 26  1  0
  2 27  1  6
  3 28  1  0
  3 29  1  0
  4 30  1  0
  4 31  1  0
  6 32  1  0
  6 33  1  0
  7 34  1  1
  9 35  1  0
  9 36  1  0
  9 37  1  0
 12 38  1  0
 13 39  1  0
 14 40  1  0
 17 41  1  0
 21 42  1  0
 21 43  1  0
M  END
>  <energy_abs>  (72) 
22.73702390550028

>  <SMILES>  (72) 
C[C@@H]1CCN(C[C@@H]1N(C)c2c3cc[nH]c3ncn2)C(=O)CC#N

>  <cluster_no>  (72) 
72

>  <fda_drugs_id>  (72) 
UJLAWZDWDVHWOW-YPMHNXCESA-N

>  <initial_conformation_id>  (72) 
279

>  <minimize_method>  (72) 
MMFF

$$$$

     RDKit          3D

 43 45  0  0  0  0  0  0  0  0999 V2000
    0.6473   -0.1675   -2.4009 C   0  0  0  0  0  0  0  0  0  0  0  0
    1.2801    0.7009   -1.3144 C   0  0  2  0  0  0  0  0  0  0  0  0
    2.4437   -0.0259   -0.6252 C   0  0  0  0  0  0  0  0  0  0  0  0
    3.2042    0.9259    0.3001 C   0  0  0  0  0  0  0  0  0  0  0  0
    2.3384    1.7519    1.1410 N   0  0  0  0  0  0  0  0  0  0  0  0
    0.9160    1.3863    1.1616 C   0  0  0  0  0  0  0  0  0  0  0  0
    0.3143    1.3401   -0.2690 C   0  0  2  0  0  0  0  0  0  0  0  0
   -1.0935    0.8709   -0.3296 N   0  0  0  0  0  0  0  0  0  0  0  0
   -2.0787    1.8091    0.2197 C   0  0  0  0  0  0  0  0  0  0  0  0
   -1.3912   -0.4558    0.0087 C   0  0  0  0  0  0  0  0  0  0  0  0
   -2.5542   -1.1218   -0.4474 C   0  0  0  0  0  0  0  0  0  0  0  0
   -3.6610   -0.8152   -1.2956 C   0  0  0  0  0  0  0  0  0  0  0  0
   -4.4776   -1.9252   -1.3520 C   0  0  0  0  0  0  0  0  0  0  0  0
   -3.9001   -2.9021   -0.5836 N   0  0  0  0  0  0  0  0  0  0  0  0
   -2.7302   -2.4383   -0.0475 C   0  0  0  0  0  0  0  0  0  0  0  0
   -1.9124   -3.1673    0.7227 N   0  0  0  0  0  0  0  0  0  0  0  0
   -0.8261   -2.4631    1.0697 C   0  0  0  0  0  0  0  0  0  0  0  0
   -0.5254   -1.1859    0.7583 N   0  0  0  0  0  0  0  0  0  0  0  0
    2.9478    2.7113    1.9394 C   0  0  0  0  0  0  0  0  0  0  0  0
    4.1674    2.8989    1.9033 O   0  0  0  0  0  0  0  0  0  0  0  0
    2.0988    3.5315    2.8830 C   0  0  0  0  0  0  0  0  0  0  0  0
    1.3405    4.5422    2.1484 C   0  0  0  0  0  0  0  0  0  0  0  0
    0.6938    5.3176    1.5754 N   0  0  0  0  0  0  0  0  0  0  0  0
    0.3103   -1.1330   -2.0141 H   0  0  0  0  0  0  0  0  0  0  0  0
   -0.1973    0.3422   -2.8755 H   0  0  0  0  0  0  0  0  0  0  0  0
    1.3809   -0.3802   -3.1870 H   0  0  0  0  0  0  0  0  0  0  0  0
    1.7353    1.5453   -1.8554 H   0  0  0  0  0  0  0  0  0  0  0  0
    2.0663   -0.8801   -0.0512 H   0  0  0  0  0  0  0  0  0  0  0  0
    3.1399   -0.4334   -1.3678 H   0  0  0  0  0  0  0  0  0  0  0  0
    3.8318    1.5999   -0.2961 H   0  0  0  0  0  0  0  0  0  0  0  0
    3.8737    0.3552    0.9545 H   0  0  0  0  0  0  0  0  0  0  0  0
    0.8702    0.4284    1.6840 H   0  0  0  0  0  0  0  0  0  0  0  0
    0.3354    2.0815    1.7702 H   0  0  0  0  0  0  0  0  0  0  0  0
    0.2741    2.3940   -0.5862 H   0  0  0  0  0  0  0  0  0  0  0  0
   -3.0935    1.6066   -0.1335 H   0  0  0  0  0  0  0  0  0  0  0  0
   -1.8480    2.8342   -0.0917 H   0  0  0  0  0  0  0  0  0  0  0  0
   -2.0809    1.7835    1.3157 H   0  0  0  0  0  0  0  0  0  0  0  0
   -3.8306    0.1174   -1.8175 H   0  0  0  0  0  0  0  0  0  0  0  0
   -5.4052   -2.1066   -1.8785 H   0  0  0  0  0  0  0  0  0  0  0  0
   -4.2507   -3.8378   -0.4389 H   0  0  0  0  0  0  0  0  0  0  0  0
   -0.0952   -2.9854    1.6794 H   0  0  0  0  0  0  0  0  0  0  0  0
    2.7658    4.0183    3.6043 H   0  0  0  0  0  0  0  0  0  0  0  0
    1.4494    2.8735    3.4683 H   0  0  0  0  0  0  0  0  0  0  0  0
  1  2  1  0
  2  3  1  0
  3  4  1  0
  4  5  1  0
  5  6  1  0
  6  7  1  0
  7  8  1  0
  8  9  1  0
  8 10  1  0
 10 11  2  0
 11 12  1  0
 12 13  2  0
 13 14  1  0
 14 15  1  0
 15 16  2  0
 16 17  1  0
 17 18  2  0
  5 19  1  0
 19 20  2  0
 19 21  1  0
 21 22  1  0
 22 23  3  0
  7  2  1  0
 18 10  1  0
 15 11  1  0
  1 24  1  0
  1 25  1  0
  1 26  1  0
  2 27  1  6
  3 28  1  0
  3 29  1  0
  4 30  1  0
  4 31  1  0
  6 32  1  0
  6 33  1  0
  7 34  1  6
  9 35  1  0
  9 36  1  0
  9 37  1  0
 12 38  1  0
 13 39  1  0
 14 40  1  0
 17 41  1  0
 21 42  1  0
 21 43  1  0
M  END
>  <energy_abs>  (73) 
16.276884875860524

>  <SMILES>  (73) 
C[C@@H]1CCN(C[C@@H]1N(C)c2c3cc[nH]c3ncn2)C(=O)CC#N

>  <cluster_no>  (73) 
73

>  <fda_drugs_id>  (73) 
UJLAWZDWDVHWOW-YPMHNXCESA-N

>  <initial_conformation_id>  (73) 
277

>  <minimize_method>  (73) 
MMFF

$$$$

     RDKit          3D

 43 45  0  0  0  0  0  0  0  0999 V2000
    1.5650    0.6828   -3.5974 C   0  0  0  0  0  0  0  0  0  0  0  0
    1.5290    1.2026   -2.1648 C   0  0  2  0  0  0  0  0  0  0  0  0
    2.8879    0.9584   -1.4890 C   0  0  0  0  0  0  0  0  0  0  0  0
    3.0102    1.8151   -0.2308 C   0  0  0  0  0  0  0  0  0  0  0  0
    1.7651    1.8836    0.5276 N   0  0  0  0  0  0  0  0  0  0  0  0
    0.8049    0.8110    0.2604 C   0  0  0  0  0  0  0  0  0  0  0  0
    0.3450    0.7364   -1.2427 C   0  0  2  0  0  0  0  0  0  0  0  0
   -0.2100   -0.6086   -1.6025 N   0  0  0  0  0  0  0  0  0  0  0  0
   -1.1059   -0.6641   -2.7679 C   0  0  0  0  0  0  0  0  0  0  0  0
   -0.8521   -1.2671   -0.5290 C   0  0  0  0  0  0  0  0  0  0  0  0
   -2.0839   -0.8886    0.0541 C   0  0  0  0  0  0  0  0  0  0  0  0
   -3.0577    0.1357   -0.1390 C   0  0  0  0  0  0  0  0  0  0  0  0
   -4.0548   -0.0458    0.7967 C   0  0  0  0  0  0  0  0  0  0  0  0
   -3.7246   -1.1431    1.5499 N   0  0  0  0  0  0  0  0  0  0  0  0
   -2.5318   -1.6558    1.1191 C   0  0  0  0  0  0  0  0  0  0  0  0
   -1.9262   -2.7202    1.6610 N   0  0  0  0  0  0  0  0  0  0  0  0
   -0.7697   -2.9930    1.0368 C   0  0  0  0  0  0  0  0  0  0  0  0
   -0.2081   -2.3335    0.0060 N   0  0  0  0  0  0  0  0  0  0  0  0
    1.7372    2.7373    1.6321 C   0  0  0  0  0  0  0  0  0  0  0  0
    2.6881    3.4788    1.8827 O   0  0  0  0  0  0  0  0  0  0  0  0
    0.4884    2.7150    2.4900 C   0  0  0  0  0  0  0  0  0  0  0  0
    0.5045    3.7439    3.5337 C   0  0  0  0  0  0  0  0  0  0  0  0
    0.4416    4.5378    4.3789 N   0  0  0  0  0  0  0  0  0  0  0  0
    0.6583    0.9656   -4.1398 H   0  0  0  0  0  0  0  0  0  0  0  0
    1.6973   -0.4028   -3.6325 H   0  0  0  0  0  0  0  0  0  0  0  0
    2.4046    1.1268   -4.1450 H   0  0  0  0  0  0  0  0  0  0  0  0
    1.4245    2.2949   -2.2562 H   0  0  0  0  0  0  0  0  0  0  0  0
    2.9873   -0.1049   -1.2357 H   0  0  0  0  0  0  0  0  0  0  0  0
    3.7199    1.1995   -2.1611 H   0  0  0  0  0  0  0  0  0  0  0  0
    3.2990    2.8383   -0.5006 H   0  0  0  0  0  0  0  0  0  0  0  0
    3.7948    1.4159    0.4227 H   0  0  0  0  0  0  0  0  0  0  0  0
   -0.0737    0.9179    0.8987 H   0  0  0  0  0  0  0  0  0  0  0  0
    1.3056   -0.1155    0.5689 H   0  0  0  0  0  0  0  0  0  0  0  0
   -0.4560    1.4793   -1.3663 H   0  0  0  0  0  0  0  0  0  0  0  0
   -1.6911    0.2550   -2.8799 H   0  0  0  0  0  0  0  0  0  0  0  0
   -1.8026   -1.5127   -2.7310 H   0  0  0  0  0  0  0  0  0  0  0  0
   -0.5313   -0.8203   -3.6832 H   0  0  0  0  0  0  0  0  0  0  0  0
   -3.0342    0.9215   -0.8821 H   0  0  0  0  0  0  0  0  0  0  0  0
   -4.9675    0.5036    0.9887 H   0  0  0  0  0  0  0  0  0  0  0  0
   -4.2595   -1.5319    2.3138 H   0  0  0  0  0  0  0  0  0  0  0  0
   -0.2140   -3.8478    1.4105 H   0  0  0  0  0  0  0  0  0  0  0  0
    0.4048    1.7284    2.9581 H   0  0  0  0  0  0  0  0  0  0  0  0
   -0.3834    2.8811    1.8478 H   0  0  0  0  0  0  0  0  0  0  0  0
  1  2  1  0
  2  3  1  0
  3  4  1  0
  4  5  1  0
  5  6  1  0
  6  7  1  0
  7  8  1  0
  8  9  1  0
  8 10  1  0
 10 11  2  0
 11 12  1  0
 12 13  2  0
 13 14  1  0
 14 15  1  0
 15 16  2  0
 16 17  1  0
 17 18  2  0
  5 19  1  0
 19 20  2  0
 19 21  1  0
 21 22  1  0
 22 23  3  0
  7  2  1  0
 18 10  1  0
 15 11  1  0
  1 24  1  0
  1 25  1  0
  1 26  1  0
  2 27  1  6
  3 28  1  0
  3 29  1  0
  4 30  1  0
  4 31  1  0
  6 32  1  0
  6 33  1  0
  7 34  1  1
  9 35  1  0
  9 36  1  0
  9 37  1  0
 12 38  1  0
 13 39  1  0
 14 40  1  0
 17 41  1  0
 21 42  1  0
 21 43  1  0
M  END
>  <energy_abs>  (74) 
26.152207864398306

>  <SMILES>  (74) 
C[C@@H]1CCN(C[C@@H]1N(C)c2c3cc[nH]c3ncn2)C(=O)CC#N

>  <cluster_no>  (74) 
74

>  <fda_drugs_id>  (74) 
UJLAWZDWDVHWOW-YPMHNXCESA-N

>  <initial_conformation_id>  (74) 
274

>  <minimize_method>  (74) 
MMFF

$$$$

     RDKit          3D

 43 45  0  0  0  0  0  0  0  0999 V2000
    1.5362    0.3950   -3.1819 C   0  0  0  0  0  0  0  0  0  0  0  0
    1.1144    1.6368   -2.3790 C   0  0  2  0  0  0  0  0  0  0  0  0
    2.3889    2.4429   -2.0278 C   0  0  0  0  0  0  0  0  0  0  0  0
    2.3267    3.1112   -0.6608 C   0  0  0  0  0  0  0  0  0  0  0  0
    2.0790    2.1373    0.4008 N   0  0  0  0  0  0  0  0  0  0  0  0
    1.2283    0.9847    0.0508 C   0  0  0  0  0  0  0  0  0  0  0  0
    0.2536    1.3176   -1.1136 C   0  0  2  0  0  0  0  0  0  0  0  0
   -0.7505    0.2491   -1.3882 N   0  0  0  0  0  0  0  0  0  0  0  0
   -1.7954    0.6435   -2.3521 C   0  0  0  0  0  0  0  0  0  0  0  0
   -1.4527   -0.1637   -0.2260 C   0  0  0  0  0  0  0  0  0  0  0  0
   -1.8712   -1.4954   -0.0463 C   0  0  0  0  0  0  0  0  0  0  0  0
   -1.7809   -2.7127   -0.7803 C   0  0  0  0  0  0  0  0  0  0  0  0
   -2.4047   -3.6965   -0.0411 C   0  0  0  0  0  0  0  0  0  0  0  0
   -2.8657   -3.1190    1.1154 N   0  0  0  0  0  0  0  0  0  0  0  0
   -2.5456   -1.7889    1.1276 C   0  0  0  0  0  0  0  0  0  0  0  0
   -2.8444   -0.9421    2.1218 N   0  0  0  0  0  0  0  0  0  0  0  0
   -2.3998    0.2975    1.8568 C   0  0  0  0  0  0  0  0  0  0  0  0
   -1.7411    0.7260    0.7588 N   0  0  0  0  0  0  0  0  0  0  0  0
    2.4916    2.4537    1.6905 C   0  0  0  0  0  0  0  0  0  0  0  0
    3.0626    3.5181    1.9441 O   0  0  0  0  0  0  0  0  0  0  0  0
    2.2505    1.4537    2.8000 C   0  0  0  0  0  0  0  0  0  0  0  0
    0.9859    1.7401    3.4769 C   0  0  0  0  0  0  0  0  0  0  0  0
   -0.0233    1.9296    4.0196 N   0  0  0  0  0  0  0  0  0  0  0  0
    0.6769   -0.1468   -3.5858 H   0  0  0  0  0  0  0  0  0  0  0  0
    2.1139   -0.3028   -2.5668 H   0  0  0  0  0  0  0  0  0  0  0  0
    2.1596    0.6854   -4.0351 H   0  0  0  0  0  0  0  0  0  0  0  0
    0.5036    2.2611   -3.0448 H   0  0  0  0  0  0  0  0  0  0  0  0
    3.2669    1.7831   -2.0414 H   0  0  0  0  0  0  0  0  0  0  0  0
    2.5636    3.1998   -2.8020 H   0  0  0  0  0  0  0  0  0  0  0  0
    1.5195    3.8526   -0.6268 H   0  0  0  0  0  0  0  0  0  0  0  0
    3.2648    3.6430   -0.4668 H   0  0  0  0  0  0  0  0  0  0  0  0
    1.8989    0.1631   -0.2279 H   0  0  0  0  0  0  0  0  0  0  0  0
    0.6989    0.6570    0.9433 H   0  0  0  0  0  0  0  0  0  0  0  0
   -0.2854    2.2392   -0.8457 H   0  0  0  0  0  0  0  0  0  0  0  0
   -2.4854   -0.1841   -2.5577 H   0  0  0  0  0  0  0  0  0  0  0  0
   -2.3742    1.5053   -1.9961 H   0  0  0  0  0  0  0  0  0  0  0  0
   -1.3562    0.9168   -3.3160 H   0  0  0  0  0  0  0  0  0  0  0  0
   -1.3071   -2.8433   -1.7446 H   0  0  0  0  0  0  0  0  0  0  0  0
   -2.5582   -4.7498   -0.2346 H   0  0  0  0  0  0  0  0  0  0  0  0
   -3.3635   -3.5823    1.8619 H   0  0  0  0  0  0  0  0  0  0  0  0
   -2.5880    1.0475    2.6204 H   0  0  0  0  0  0  0  0  0  0  0  0
    3.0836    1.5376    3.5080 H   0  0  0  0  0  0  0  0  0  0  0  0
    2.2882    0.4287    2.4207 H   0  0  0  0  0  0  0  0  0  0  0  0
  1  2  1  0
  2  3  1  0
  3  4  1  0
  4  5  1  0
  5  6  1  0
  6  7  1  0
  7  8  1  0
  8  9  1  0
  8 10  1  0
 10 11  2  0
 11 12  1  0
 12 13  2  0
 13 14  1  0
 14 15  1  0
 15 16  2  0
 16 17  1  0
 17 18  2  0
  5 19  1  0
 19 20  2  0
 19 21  1  0
 21 22  1  0
 22 23  3  0
  7  2  1  0
 18 10  1  0
 15 11  1  0
  1 24  1  0
  1 25  1  0
  1 26  1  0
  2 27  1  6
  3 28  1  0
  3 29  1  0
  4 30  1  0
  4 31  1  0
  6 32  1  0
  6 33  1  0
  7 34  1  1
  9 35  1  0
  9 36  1  0
  9 37  1  0
 12 38  1  0
 13 39  1  0
 14 40  1  0
 17 41  1  0
 21 42  1  0
 21 43  1  0
M  END
>  <energy_abs>  (75) 
12.47336278083111

>  <SMILES>  (75) 
C[C@@H]1CCN(C[C@@H]1N(C)c2c3cc[nH]c3ncn2)C(=O)CC#N

>  <cluster_no>  (75) 
75

>  <fda_drugs_id>  (75) 
UJLAWZDWDVHWOW-YPMHNXCESA-N

>  <initial_conformation_id>  (75) 
262

>  <minimize_method>  (75) 
MMFF

$$$$

     RDKit          3D

 43 45  0  0  0  0  0  0  0  0999 V2000
   -0.4480    1.7030   -2.9918 C   0  0  0  0  0  0  0  0  0  0  0  0
    0.2060    2.2731   -1.7326 C   0  0  2  0  0  0  0  0  0  0  0  0
    1.7285    2.1154   -1.7982 C   0  0  0  0  0  0  0  0  0  0  0  0
    2.4129    2.7006   -0.5673 C   0  0  0  0  0  0  0  0  0  0  0  0
    1.8581    2.1845    0.6840 N   0  0  0  0  0  0  0  0  0  0  0  0
    0.3935    2.2628    0.8106 C   0  0  0  0  0  0  0  0  0  0  0  0
   -0.3914    1.7238   -0.4123 C   0  0  2  0  0  0  0  0  0  0  0  0
   -0.5224    0.2417   -0.4099 N   0  0  0  0  0  0  0  0  0  0  0  0
    0.5587   -0.5968    0.0724 C   0  0  0  0  0  0  0  0  0  0  0  0
   -1.8329   -0.2581   -0.3887 C   0  0  0  0  0  0  0  0  0  0  0  0
   -2.2737   -1.4892    0.1737 C   0  0  0  0  0  0  0  0  0  0  0  0
   -1.7143   -2.5815    0.9119 C   0  0  0  0  0  0  0  0  0  0  0  0
   -2.7134   -3.4956    1.1739 C   0  0  0  0  0  0  0  0  0  0  0  0
   -3.8681   -3.0040    0.6327 N   0  0  0  0  0  0  0  0  0  0  0  0
   -3.6240   -1.7973    0.0380 C   0  0  0  0  0  0  0  0  0  0  0  0
   -4.5739   -1.0710   -0.5636 N   0  0  0  0  0  0  0  0  0  0  0  0
   -4.0709    0.0662   -1.0523 C   0  0  0  0  0  0  0  0  0  0  0  0
   -2.7987    0.4978   -0.9947 N   0  0  0  0  0  0  0  0  0  0  0  0
    2.5956    2.0661    1.8691 C   0  0  0  0  0  0  0  0  0  0  0  0
    2.0408    1.9029    2.9557 O   0  0  0  0  0  0  0  0  0  0  0  0
    4.1055    2.1259    1.7455 C   0  0  0  0  0  0  0  0  0  0  0  0
    4.7841    1.8719    3.0197 C   0  0  0  0  0  0  0  0  0  0  0  0
    5.3903    1.6759    3.9905 N   0  0  0  0  0  0  0  0  0  0  0  0
   -1.5274    1.8824   -2.9863 H   0  0  0  0  0  0  0  0  0  0  0  0
   -0.0421    2.1864   -3.8873 H   0  0  0  0  0  0  0  0  0  0  0  0
   -0.2737    0.6269   -3.0906 H   0  0  0  0  0  0  0  0  0  0  0  0
    0.0045    3.3546   -1.7394 H   0  0  0  0  0  0  0  0  0  0  0  0
    1.9963    1.0590   -1.9086 H   0  0  0  0  0  0  0  0  0  0  0  0
    2.1158    2.6228   -2.6905 H   0  0  0  0  0  0  0  0  0  0  0  0
    3.4843    2.4993   -0.6360 H   0  0  0  0  0  0  0  0  0  0  0  0
    2.2930    3.7906   -0.5453 H   0  0  0  0  0  0  0  0  0  0  0  0
    0.0561    1.7517    1.7194 H   0  0  0  0  0  0  0  0  0  0  0  0
    0.1626    3.3278    0.9453 H   0  0  0  0  0  0  0  0  0  0  0  0
   -1.3847    2.1805   -0.3094 H   0  0  0  0  0  0  0  0  0  0  0  0
    0.5238   -1.5893   -0.3895 H   0  0  0  0  0  0  0  0  0  0  0  0
    1.5387   -0.2019   -0.1993 H   0  0  0  0  0  0  0  0  0  0  0  0
    0.5327   -0.6926    1.1628 H   0  0  0  0  0  0  0  0  0  0  0  0
   -0.6907   -2.7007    1.2363 H   0  0  0  0  0  0  0  0  0  0  0  0
   -2.7006   -4.4407    1.7005 H   0  0  0  0  0  0  0  0  0  0  0  0
   -4.7793   -3.4378    0.6621 H   0  0  0  0  0  0  0  0  0  0  0  0
   -4.7717    0.7229   -1.5577 H   0  0  0  0  0  0  0  0  0  0  0  0
    4.4283    1.3728    1.0187 H   0  0  0  0  0  0  0  0  0  0  0  0
    4.3877    3.1193    1.3809 H   0  0  0  0  0  0  0  0  0  0  0  0
  1  2  1  0
  2  3  1  0
  3  4  1  0
  4  5  1  0
  5  6  1  0
  6  7  1  0
  7  8  1  0
  8  9  1  0
  8 10  1  0
 10 11  2  0
 11 12  1  0
 12 13  2  0
 13 14  1  0
 14 15  1  0
 15 16  2  0
 16 17  1  0
 17 18  2  0
  5 19  1  0
 19 20  2  0
 19 21  1  0
 21 22  1  0
 22 23  3  0
  7  2  1  0
 18 10  1  0
 15 11  1  0
  1 24  1  0
  1 25  1  0
  1 26  1  0
  2 27  1  1
  3 28  1  0
  3 29  1  0
  4 30  1  0
  4 31  1  0
  6 32  1  0
  6 33  1  0
  7 34  1  1
  9 35  1  0
  9 36  1  0
  9 37  1  0
 12 38  1  0
 13 39  1  0
 14 40  1  0
 17 41  1  0
 21 42  1  0
 21 43  1  0
M  END
>  <energy_abs>  (76) 
11.676143319692574

>  <SMILES>  (76) 
C[C@@H]1CCN(C[C@@H]1N(C)c2c3cc[nH]c3ncn2)C(=O)CC#N

>  <cluster_no>  (76) 
76

>  <fda_drugs_id>  (76) 
UJLAWZDWDVHWOW-YPMHNXCESA-N

>  <initial_conformation_id>  (76) 
260

>  <minimize_method>  (76) 
MMFF

$$$$

     RDKit          3D

 43 45  0  0  0  0  0  0  0  0999 V2000
   -0.3587    2.3548   -1.9957 C   0  0  0  0  0  0  0  0  0  0  0  0
   -0.6851    1.9517   -0.5557 C   0  0  2  0  0  0  0  0  0  0  0  0
   -0.3999    3.1192    0.4084 C   0  0  0  0  0  0  0  0  0  0  0  0
    1.0911    3.3849    0.5979 C   0  0  0  0  0  0  0  0  0  0  0  0
    1.8302    2.1811    0.9824 N   0  0  0  0  0  0  0  0  0  0  0  0
    1.5725    0.9853    0.1669 C   0  0  0  0  0  0  0  0  0  0  0  0
    0.0645    0.6980   -0.0315 C   0  0  2  0  0  0  0  0  0  0  0  0
   -0.1808   -0.5572   -0.7837 N   0  0  0  0  0  0  0  0  0  0  0  0
    0.6004   -0.8597   -1.9810 C   0  0  0  0  0  0  0  0  0  0  0  0
   -1.5352   -0.9152   -0.9117 C   0  0  0  0  0  0  0  0  0  0  0  0
   -2.3841   -1.1875    0.1857 C   0  0  0  0  0  0  0  0  0  0  0  0
   -2.2599   -1.2673    1.6054 C   0  0  0  0  0  0  0  0  0  0  0  0
   -3.4956   -1.5901    2.1263 C   0  0  0  0  0  0  0  0  0  0  0  0
   -4.3643   -1.7256    1.0752 N   0  0  0  0  0  0  0  0  0  0  0  0
   -3.7046   -1.5023   -0.1021 C   0  0  0  0  0  0  0  0  0  0  0  0
   -4.2737   -1.5890   -1.3114 N   0  0  0  0  0  0  0  0  0  0  0  0
   -3.3819   -1.3471   -2.2828 C   0  0  0  0  0  0  0  0  0  0  0  0
   -2.0787   -1.0303   -2.1553 N   0  0  0  0  0  0  0  0  0  0  0  0
    3.0231    2.3739    1.6954 C   0  0  0  0  0  0  0  0  0  0  0  0
    3.3672    3.4931    2.0757 O   0  0  0  0  0  0  0  0  0  0  0  0
    3.8536    1.1391    1.9873 C   0  0  0  0  0  0  0  0  0  0  0  0
    5.0056    1.4277    2.8466 C   0  0  0  0  0  0  0  0  0  0  0  0
    5.9365    1.5808    3.5237 N   0  0  0  0  0  0  0  0  0  0  0  0
   -0.7956    1.6484   -2.7065 H   0  0  0  0  0  0  0  0  0  0  0  0
    0.7170    2.4104   -2.1828 H   0  0  0  0  0  0  0  0  0  0  0  0
   -0.7885    3.3353   -2.2295 H   0  0  0  0  0  0  0  0  0  0  0  0
   -1.7667    1.7689   -0.5159 H   0  0  0  0  0  0  0  0  0  0  0  0
   -0.8949    4.0332    0.0594 H   0  0  0  0  0  0  0  0  0  0  0  0
   -0.8415    2.8812    1.3853 H   0  0  0  0  0  0  0  0  0  0  0  0
    1.2155    4.1622    1.3601 H   0  0  0  0  0  0  0  0  0  0  0  0
    1.5423    3.7662   -0.3257 H   0  0  0  0  0  0  0  0  0  0  0  0
    2.0832    1.1511   -0.7884 H   0  0  0  0  0  0  0  0  0  0  0  0
    2.0371    0.1071    0.6238 H   0  0  0  0  0  0  0  0  0  0  0  0
   -0.3081    0.5330    0.9876 H   0  0  0  0  0  0  0  0  0  0  0  0
    0.3945   -0.1765   -2.8086 H   0  0  0  0  0  0  0  0  0  0  0  0
    0.4134   -1.8854   -2.3235 H   0  0  0  0  0  0  0  0  0  0  0  0
    1.6724   -0.8178   -1.7653 H   0  0  0  0  0  0  0  0  0  0  0  0
   -1.3586   -1.1170    2.1840 H   0  0  0  0  0  0  0  0  0  0  0  0
   -3.8263   -1.7453    3.1448 H   0  0  0  0  0  0  0  0  0  0  0  0
   -5.3419   -1.9722    1.1314 H   0  0  0  0  0  0  0  0  0  0  0  0
   -3.7553   -1.4126   -3.3001 H   0  0  0  0  0  0  0  0  0  0  0  0
    4.2102    0.7248    1.0383 H   0  0  0  0  0  0  0  0  0  0  0  0
    3.2185    0.3981    2.4846 H   0  0  0  0  0  0  0  0  0  0  0  0
  1  2  1  0
  2  3  1  0
  3  4  1  0
  4  5  1  0
  5  6  1  0
  6  7  1  0
  7  8  1  0
  8  9  1  0
  8 10  1  0
 10 11  2  0
 11 12  1  0
 12 13  2  0
 13 14  1  0
 14 15  1  0
 15 16  2  0
 16 17  1  0
 17 18  2  0
  5 19  1  0
 19 20  2  0
 19 21  1  0
 21 22  1  0
 22 23  3  0
  7  2  1  0
 18 10  1  0
 15 11  1  0
  1 24  1  0
  1 25  1  0
  1 26  1  0
  2 27  1  6
  3 28  1  0
  3 29  1  0
  4 30  1  0
  4 31  1  0
  6 32  1  0
  6 33  1  0
  7 34  1  1
  9 35  1  0
  9 36  1  0
  9 37  1  0
 12 38  1  0
 13 39  1  0
 14 40  1  0
 17 41  1  0
 21 42  1  0
 21 43  1  0
M  END
>  <energy_abs>  (77) 
13.248622880067908

>  <SMILES>  (77) 
C[C@@H]1CCN(C[C@@H]1N(C)c2c3cc[nH]c3ncn2)C(=O)CC#N

>  <cluster_no>  (77) 
77

>  <fda_drugs_id>  (77) 
UJLAWZDWDVHWOW-YPMHNXCESA-N

>  <initial_conformation_id>  (77) 
257

>  <minimize_method>  (77) 
MMFF

$$$$

     RDKit          3D

 43 45  0  0  0  0  0  0  0  0999 V2000
   -1.5664    2.5514   -1.5090 C   0  0  0  0  0  0  0  0  0  0  0  0
   -0.3687    2.4871   -0.5655 C   0  0  2  0  0  0  0  0  0  0  0  0
    0.8730    3.1636   -1.1500 C   0  0  0  0  0  0  0  0  0  0  0  0
    1.9113    3.4093   -0.0536 C   0  0  0  0  0  0  0  0  0  0  0  0
    1.9384    2.3800    0.9882 N   0  0  0  0  0  0  0  0  0  0  0  0
    1.4264    1.0586    0.6098 C   0  0  0  0  0  0  0  0  0  0  0  0
   -0.0161    1.0904    0.0193 C   0  0  2  0  0  0  0  0  0  0  0  0
   -0.1980   -0.0685   -0.8838 N   0  0  0  0  0  0  0  0  0  0  0  0
    0.4859   -0.1148   -2.1738 C   0  0  0  0  0  0  0  0  0  0  0  0
   -1.4667   -0.6641   -0.8984 C   0  0  0  0  0  0  0  0  0  0  0  0
   -2.1089   -1.1815    0.2506 C   0  0  0  0  0  0  0  0  0  0  0  0
   -1.7956   -1.3470    1.6340 C   0  0  0  0  0  0  0  0  0  0  0  0
   -2.8744   -1.9470    2.2491 C   0  0  0  0  0  0  0  0  0  0  0  0
   -3.8260   -2.1698    1.2883 N   0  0  0  0  0  0  0  0  0  0  0  0
   -3.3707   -1.7315    0.0752 C   0  0  0  0  0  0  0  0  0  0  0  0
   -4.0564   -1.8418   -1.0699 N   0  0  0  0  0  0  0  0  0  0  0  0
   -3.3487   -1.3627   -2.1031 C   0  0  0  0  0  0  0  0  0  0  0  0
   -2.1225   -0.8054   -2.0840 N   0  0  0  0  0  0  0  0  0  0  0  0
    2.7809    2.6227    2.0724 C   0  0  0  0  0  0  0  0  0  0  0  0
    3.3754    3.6975    2.1976 O   0  0  0  0  0  0  0  0  0  0  0  0
    2.9386    1.5608    3.1363 C   0  0  0  0  0  0  0  0  0  0  0  0
    3.9344    0.5726    2.7291 C   0  0  0  0  0  0  0  0  0  0  0  0
    4.6969   -0.2414    2.4075 N   0  0  0  0  0  0  0  0  0  0  0  0
   -1.8324    3.5960   -1.7079 H   0  0  0  0  0  0  0  0  0  0  0  0
   -1.3679    2.0871   -2.4764 H   0  0  0  0  0  0  0  0  0  0  0  0
   -2.4445    2.0761   -1.0610 H   0  0  0  0  0  0  0  0  0  0  0  0
   -0.6649    3.1039    0.2981 H   0  0  0  0  0  0  0  0  0  0  0  0
    0.6186    4.1211   -1.6199 H   0  0  0  0  0  0  0  0  0  0  0  0
    1.3093    2.5422   -1.9390 H   0  0  0  0  0  0  0  0  0  0  0  0
    2.9120    3.4803   -0.4965 H   0  0  0  0  0  0  0  0  0  0  0  0
    1.7063    4.3706    0.4339 H   0  0  0  0  0  0  0  0  0  0  0  0
    2.1550    0.6521   -0.0998 H   0  0  0  0  0  0  0  0  0  0  0  0
    1.4312    0.3689    1.4573 H   0  0  0  0  0  0  0  0  0  0  0  0
   -0.6810    0.9844    0.8852 H   0  0  0  0  0  0  0  0  0  0  0  0
    1.5269    0.2075   -2.0864 H   0  0  0  0  0  0  0  0  0  0  0  0
    0.5214   -1.1431   -2.5546 H   0  0  0  0  0  0  0  0  0  0  0  0
    0.0088    0.5142   -2.9304 H   0  0  0  0  0  0  0  0  0  0  0  0
   -0.8725   -1.0678    2.1228 H   0  0  0  0  0  0  0  0  0  0  0  0
   -3.0410   -2.2452    3.2758 H   0  0  0  0  0  0  0  0  0  0  0  0
   -4.7241   -2.6114    1.4225 H   0  0  0  0  0  0  0  0  0  0  0  0
   -3.8217   -1.4307   -3.0779 H   0  0  0  0  0  0  0  0  0  0  0  0
    1.9715    1.1050    3.3668 H   0  0  0  0  0  0  0  0  0  0  0  0
    3.2610    2.0563    4.0599 H   0  0  0  0  0  0  0  0  0  0  0  0
  1  2  1  0
  2  3  1  0
  3  4  1  0
  4  5  1  0
  5  6  1  0
  6  7  1  0
  7  8  1  0
  8  9  1  0
  8 10  1  0
 10 11  2  0
 11 12  1  0
 12 13  2  0
 13 14  1  0
 14 15  1  0
 15 16  2  0
 16 17  1  0
 17 18  2  0
  5 19  1  0
 19 20  2  0
 19 21  1  0
 21 22  1  0
 22 23  3  0
  7  2  1  0
 18 10  1  0
 15 11  1  0
  1 24  1  0
  1 25  1  0
  1 26  1  0
  2 27  1  1
  3 28  1  0
  3 29  1  0
  4 30  1  0
  4 31  1  0
  6 32  1  0
  6 33  1  0
  7 34  1  1
  9 35  1  0
  9 36  1  0
  9 37  1  0
 12 38  1  0
 13 39  1  0
 14 40  1  0
 17 41  1  0
 21 42  1  0
 21 43  1  0
M  END
>  <energy_abs>  (78) 
18.276487266340514

>  <SMILES>  (78) 
C[C@@H]1CCN(C[C@@H]1N(C)c2c3cc[nH]c3ncn2)C(=O)CC#N

>  <cluster_no>  (78) 
78

>  <fda_drugs_id>  (78) 
UJLAWZDWDVHWOW-YPMHNXCESA-N

>  <initial_conformation_id>  (78) 
254

>  <minimize_method>  (78) 
MMFF

$$$$

     RDKit          3D

 43 45  0  0  0  0  0  0  0  0999 V2000
   -2.1531    2.9498   -1.7282 C   0  0  0  0  0  0  0  0  0  0  0  0
   -0.7733    2.9306   -1.0723 C   0  0  2  0  0  0  0  0  0  0  0  0
    0.1873    1.9978   -1.8140 C   0  0  0  0  0  0  0  0  0  0  0  0
    1.5870    2.0600   -1.2130 C   0  0  0  0  0  0  0  0  0  0  0  0
    1.5981    1.8078    0.2249 N   0  0  0  0  0  0  0  0  0  0  0  0
    0.6222    2.5530    1.0344 C   0  0  0  0  0  0  0  0  0  0  0  0
   -0.8075    2.6424    0.4473 C   0  0  2  0  0  0  0  0  0  0  0  0
   -1.7456    1.5494    0.8258 N   0  0  0  0  0  0  0  0  0  0  0  0
   -2.2910    1.6368    2.1828 C   0  0  0  0  0  0  0  0  0  0  0  0
   -1.3966    0.2199    0.5644 C   0  0  0  0  0  0  0  0  0  0  0  0
   -2.2922   -0.6550   -0.0846 C   0  0  0  0  0  0  0  0  0  0  0  0
   -3.6024   -0.5656   -0.6384 C   0  0  0  0  0  0  0  0  0  0  0  0
   -3.9316   -1.8043   -1.1483 C   0  0  0  0  0  0  0  0  0  0  0  0
   -2.8688   -2.6417   -0.9222 N   0  0  0  0  0  0  0  0  0  0  0  0
   -1.8746   -1.9621   -0.2734 C   0  0  0  0  0  0  0  0  0  0  0  0
   -0.7069   -2.4984    0.1032 N   0  0  0  0  0  0  0  0  0  0  0  0
    0.0581   -1.5931    0.7333 C   0  0  0  0  0  0  0  0  0  0  0  0
   -0.2237   -0.2997    1.0033 N   0  0  0  0  0  0  0  0  0  0  0  0
    2.7221    1.1729    0.7635 C   0  0  0  0  0  0  0  0  0  0  0  0
    3.6404    0.7725    0.0464 O   0  0  0  0  0  0  0  0  0  0  0  0
    2.7619    1.0045    2.2702 C   0  0  0  0  0  0  0  0  0  0  0  0
    3.9212    0.2263    2.7166 C   0  0  0  0  0  0  0  0  0  0  0  0
    4.8112   -0.3851    3.1443 N   0  0  0  0  0  0  0  0  0  0  0  0
   -2.8432    3.5903   -1.1693 H   0  0  0  0  0  0  0  0  0  0  0  0
   -2.5876    1.9499   -1.7970 H   0  0  0  0  0  0  0  0  0  0  0  0
   -2.0844    3.3451   -2.7476 H   0  0  0  0  0  0  0  0  0  0  0  0
   -0.3683    3.9477   -1.1840 H   0  0  0  0  0  0  0  0  0  0  0  0
    0.2427    2.2843   -2.8713 H   0  0  0  0  0  0  0  0  0  0  0  0
   -0.1799    0.9664   -1.7918 H   0  0  0  0  0  0  0  0  0  0  0  0
    2.2283    1.3426   -1.7360 H   0  0  0  0  0  0  0  0  0  0  0  0
    2.0235    3.0544   -1.3674 H   0  0  0  0  0  0  0  0  0  0  0  0
    1.0317    3.5698    1.1028 H   0  0  0  0  0  0  0  0  0  0  0  0
    0.5833    2.1754    2.0581 H   0  0  0  0  0  0  0  0  0  0  0  0
   -1.2444    3.5485    0.8931 H   0  0  0  0  0  0  0  0  0  0  0  0
   -3.1130    0.9261    2.3321 H   0  0  0  0  0  0  0  0  0  0  0  0
   -1.5239    1.4495    2.9431 H   0  0  0  0  0  0  0  0  0  0  0  0
   -2.7066    2.6350    2.3597 H   0  0  0  0  0  0  0  0  0  0  0  0
   -4.2274    0.3176   -0.6591 H   0  0  0  0  0  0  0  0  0  0  0  0
   -4.8218   -2.1597   -1.6501 H   0  0  0  0  0  0  0  0  0  0  0  0
   -2.8056   -3.6158   -1.1806 H   0  0  0  0  0  0  0  0  0  0  0  0
    1.0269   -1.9483    1.0725 H   0  0  0  0  0  0  0  0  0  0  0  0
    2.7973    1.9977    2.7304 H   0  0  0  0  0  0  0  0  0  0  0  0
    1.8542    0.4920    2.6017 H   0  0  0  0  0  0  0  0  0  0  0  0
  1  2  1  0
  2  3  1  0
  3  4  1  0
  4  5  1  0
  5  6  1  0
  6  7  1  0
  7  8  1  0
  8  9  1  0
  8 10  1  0
 10 11  2  0
 11 12  1  0
 12 13  2  0
 13 14  1  0
 14 15  1  0
 15 16  2  0
 16 17  1  0
 17 18  2  0
  5 19  1  0
 19 20  2  0
 19 21  1  0
 21 22  1  0
 22 23  3  0
  7  2  1  0
 18 10  1  0
 15 11  1  0
  1 24  1  0
  1 25  1  0
  1 26  1  0
  2 27  1  1
  3 28  1  0
  3 29  1  0
  4 30  1  0
  4 31  1  0
  6 32  1  0
  6 33  1  0
  7 34  1  1
  9 35  1  0
  9 36  1  0
  9 37  1  0
 12 38  1  0
 13 39  1  0
 14 40  1  0
 17 41  1  0
 21 42  1  0
 21 43  1  0
M  END
>  <energy_abs>  (79) 
12.07868185576163

>  <SMILES>  (79) 
C[C@@H]1CCN(C[C@@H]1N(C)c2c3cc[nH]c3ncn2)C(=O)CC#N

>  <cluster_no>  (79) 
79

>  <fda_drugs_id>  (79) 
UJLAWZDWDVHWOW-YPMHNXCESA-N

>  <initial_conformation_id>  (79) 
253

>  <minimize_method>  (79) 
MMFF

$$$$

     RDKit          3D

 43 45  0  0  0  0  0  0  0  0999 V2000
   -0.5472    0.9549   -2.7028 C   0  0  0  0  0  0  0  0  0  0  0  0
    0.3987    1.5543   -1.6638 C   0  0  2  0  0  0  0  0  0  0  0  0
    1.6499    0.6779   -1.5028 C   0  0  0  0  0  0  0  0  0  0  0  0
    2.6860    1.3344   -0.5940 C   0  0  0  0  0  0  0  0  0  0  0  0
    2.1223    1.8181    0.6663 N   0  0  0  0  0  0  0  0  0  0  0  0
    0.8699    2.5831    0.5520 C   0  0  0  0  0  0  0  0  0  0  0  0
   -0.2330    1.8547   -0.2704 C   0  0  2  0  0  0  0  0  0  0  0  0
   -0.7189    0.5991    0.3895 N   0  0  0  0  0  0  0  0  0  0  0  0
   -0.7707    0.6036    1.8600 C   0  0  0  0  0  0  0  0  0  0  0  0
   -2.0117    0.2086   -0.0460 C   0  0  0  0  0  0  0  0  0  0  0  0
   -2.3827   -1.1493   -0.1356 C   0  0  0  0  0  0  0  0  0  0  0  0
   -1.7525   -2.4065    0.0950 C   0  0  0  0  0  0  0  0  0  0  0  0
   -2.6713   -3.3962   -0.1863 C   0  0  0  0  0  0  0  0  0  0  0  0
   -3.8332   -2.7838   -0.5833 N   0  0  0  0  0  0  0  0  0  0  0  0
   -3.6717   -1.4253   -0.5615 C   0  0  0  0  0  0  0  0  0  0  0  0
   -4.6181   -0.5395   -0.9008 N   0  0  0  0  0  0  0  0  0  0  0  0
   -4.1649    0.7193   -0.7835 C   0  0  0  0  0  0  0  0  0  0  0  0
   -2.9451    1.1356   -0.3865 N   0  0  0  0  0  0  0  0  0  0  0  0
    2.8647    1.9655    1.8430 C   0  0  0  0  0  0  0  0  0  0  0  0
    2.4348    2.6185    2.7944 O   0  0  0  0  0  0  0  0  0  0  0  0
    4.2085    1.2659    1.8959 C   0  0  0  0  0  0  0  0  0  0  0  0
    4.8721    1.4221    3.1935 C   0  0  0  0  0  0  0  0  0  0  0  0
    5.4563    1.5034    4.1938 N   0  0  0  0  0  0  0  0  0  0  0  0
   -1.4677    1.5411   -2.7817 H   0  0  0  0  0  0  0  0  0  0  0  0
   -0.8021   -0.0848   -2.4810 H   0  0  0  0  0  0  0  0  0  0  0  0
   -0.0723    0.9604   -3.6906 H   0  0  0  0  0  0  0  0  0  0  0  0
    0.7231    2.5188   -2.0818 H   0  0  0  0  0  0  0  0  0  0  0  0
    2.1069    0.4861   -2.4811 H   0  0  0  0  0  0  0  0  0  0  0  0
    1.3714   -0.2995   -1.0894 H   0  0  0  0  0  0  0  0  0  0  0  0
    3.1291    2.2035   -1.0954 H   0  0  0  0  0  0  0  0  0  0  0  0
    3.4953    0.6228   -0.4139 H   0  0  0  0  0  0  0  0  0  0  0  0
    0.4876    2.8591    1.5399 H   0  0  0  0  0  0  0  0  0  0  0  0
    1.1305    3.5297    0.0599 H   0  0  0  0  0  0  0  0  0  0  0  0
   -1.0486    2.5797   -0.3865 H   0  0  0  0  0  0  0  0  0  0  0  0
    0.2381    0.6483    2.2797 H   0  0  0  0  0  0  0  0  0  0  0  0
   -1.2085   -0.3178    2.2640 H   0  0  0  0  0  0  0  0  0  0  0  0
   -1.3494    1.4542    2.2401 H   0  0  0  0  0  0  0  0  0  0  0  0
   -0.7341   -2.5574    0.4285 H   0  0  0  0  0  0  0  0  0  0  0  0
   -2.5993   -4.4748   -0.1417 H   0  0  0  0  0  0  0  0  0  0  0  0
   -4.6896   -3.2422   -0.8588 H   0  0  0  0  0  0  0  0  0  0  0  0
   -4.8702    1.5038   -1.0408 H   0  0  0  0  0  0  0  0  0  0  0  0
    4.0555    0.1987    1.7023 H   0  0  0  0  0  0  0  0  0  0  0  0
    4.8521    1.6822    1.1138 H   0  0  0  0  0  0  0  0  0  0  0  0
  1  2  1  0
  2  3  1  0
  3  4  1  0
  4  5  1  0
  5  6  1  0
  6  7  1  0
  7  8  1  0
  8  9  1  0
  8 10  1  0
 10 11  2  0
 11 12  1  0
 12 13  2  0
 13 14  1  0
 14 15  1  0
 15 16  2  0
 16 17  1  0
 17 18  2  0
  5 19  1  0
 19 20  2  0
 19 21  1  0
 21 22  1  0
 22 23  3  0
  7  2  1  0
 18 10  1  0
 15 11  1  0
  1 24  1  0
  1 25  1  0
  1 26  1  0
  2 27  1  6
  3 28  1  0
  3 29  1  0
  4 30  1  0
  4 31  1  0
  6 32  1  0
  6 33  1  0
  7 34  1  6
  9 35  1  0
  9 36  1  0
  9 37  1  0
 12 38  1  0
 13 39  1  0
 14 40  1  0
 17 41  1  0
 21 42  1  0
 21 43  1  0
M  END
>  <energy_abs>  (80) 
9.93512154429526

>  <SMILES>  (80) 
C[C@@H]1CCN(C[C@@H]1N(C)c2c3cc[nH]c3ncn2)C(=O)CC#N

>  <cluster_no>  (80) 
80

>  <fda_drugs_id>  (80) 
UJLAWZDWDVHWOW-YPMHNXCESA-N

>  <initial_conformation_id>  (80) 
251

>  <minimize_method>  (80) 
MMFF

$$$$

     RDKit          3D

 43 45  0  0  0  0  0  0  0  0999 V2000
    1.3877   -0.5114   -0.7536 C   0  0  0  0  0  0  0  0  0  0  0  0
    0.6144    0.7993   -0.9749 C   0  0  2  0  0  0  0  0  0  0  0  0
    1.5520    1.8666   -1.5868 C   0  0  0  0  0  0  0  0  0  0  0  0
    1.9136    3.0019   -0.6303 C   0  0  0  0  0  0  0  0  0  0  0  0
    2.1479    2.5030    0.7193 N   0  0  0  0  0  0  0  0  0  0  0  0
    1.0459    1.7457    1.3261 C   0  0  0  0  0  0  0  0  0  0  0  0
   -0.0661    1.3281    0.3234 C   0  0  2  0  0  0  0  0  0  0  0  0
   -0.9904    0.3210    0.9179 N   0  0  0  0  0  0  0  0  0  0  0  0
   -1.5775    0.6845    2.2143 C   0  0  0  0  0  0  0  0  0  0  0  0
   -2.0782    0.0213    0.0574 C   0  0  0  0  0  0  0  0  0  0  0  0
   -2.6096   -1.2794   -0.0349 C   0  0  0  0  0  0  0  0  0  0  0  0
   -2.3289   -2.5504    0.5438 C   0  0  0  0  0  0  0  0  0  0  0  0
   -3.2318   -3.4564    0.0270 C   0  0  0  0  0  0  0  0  0  0  0  0
   -4.0455   -2.7805   -0.8470 N   0  0  0  0  0  0  0  0  0  0  0  0
   -3.6797   -1.4629   -0.8955 C   0  0  0  0  0  0  0  0  0  0  0  0
   -4.2733   -0.5330   -1.6563 N   0  0  0  0  0  0  0  0  0  0  0  0
   -3.6906    0.6667   -1.4964 C   0  0  0  0  0  0  0  0  0  0  0  0
   -2.6520    0.9929   -0.6999 N   0  0  0  0  0  0  0  0  0  0  0  0
    3.3196    2.8519    1.3807 C   0  0  0  0  0  0  0  0  0  0  0  0
    4.1871    3.5515    0.8524 O   0  0  0  0  0  0  0  0  0  0  0  0
    3.5253    2.3534    2.7942 C   0  0  0  0  0  0  0  0  0  0  0  0
    4.1518    1.0332    2.7808 C   0  0  0  0  0  0  0  0  0  0  0  0
    4.6204   -0.0286    2.8043 N   0  0  0  0  0  0  0  0  0  0  0  0
    2.2379   -0.3767   -0.0777 H   0  0  0  0  0  0  0  0  0  0  0  0
    0.7446   -1.2939   -0.3404 H   0  0  0  0  0  0  0  0  0  0  0  0
    1.7802   -0.8856   -1.7058 H   0  0  0  0  0  0  0  0  0  0  0  0
   -0.1519    0.5782   -1.7283 H   0  0  0  0  0  0  0  0  0  0  0  0
    2.4745    1.3960   -1.9496 H   0  0  0  0  0  0  0  0  0  0  0  0
    1.0733    2.3053   -2.4713 H   0  0  0  0  0  0  0  0  0  0  0  0
    2.7821    3.5429   -1.0196 H   0  0  0  0  0  0  0  0  0  0  0  0
    1.0945    3.7289   -0.5696 H   0  0  0  0  0  0  0  0  0  0  0  0
    0.6165    2.3866    2.1054 H   0  0  0  0  0  0  0  0  0  0  0  0
    1.4622    0.8651    1.8274 H   0  0  0  0  0  0  0  0  0  0  0  0
   -0.6305    2.2390    0.0756 H   0  0  0  0  0  0  0  0  0  0  0  0
   -2.0830    1.6569    2.1715 H   0  0  0  0  0  0  0  0  0  0  0  0
   -2.2929   -0.0685    2.5674 H   0  0  0  0  0  0  0  0  0  0  0  0
   -0.7975    0.7374    2.9809 H   0  0  0  0  0  0  0  0  0  0  0  0
   -1.5435   -2.7681    1.2560 H   0  0  0  0  0  0  0  0  0  0  0  0
   -3.3610   -4.5167    0.1995 H   0  0  0  0  0  0  0  0  0  0  0  0
   -4.8019   -3.1733   -1.3883 H   0  0  0  0  0  0  0  0  0  0  0  0
   -4.1096    1.4793   -2.0823 H   0  0  0  0  0  0  0  0  0  0  0  0
    2.5832    2.3448    3.3487 H   0  0  0  0  0  0  0  0  0  0  0  0
    4.1704    3.0726    3.3125 H   0  0  0  0  0  0  0  0  0  0  0  0
  1  2  1  0
  2  3  1  0
  3  4  1  0
  4  5  1  0
  5  6  1  0
  6  7  1  0
  7  8  1  0
  8  9  1  0
  8 10  1  0
 10 11  2  0
 11 12  1  0
 12 13  2  0
 13 14  1  0
 14 15  1  0
 15 16  2  0
 16 17  1  0
 17 18  2  0
  5 19  1  0
 19 20  2  0
 19 21  1  0
 21 22  1  0
 22 23  3  0
  7  2  1  0
 18 10  1  0
 15 11  1  0
  1 24  1  0
  1 25  1  0
  1 26  1  0
  2 27  1  6
  3 28  1  0
  3 29  1  0
  4 30  1  0
  4 31  1  0
  6 32  1  0
  6 33  1  0
  7 34  1  6
  9 35  1  0
  9 36  1  0
  9 37  1  0
 12 38  1  0
 13 39  1  0
 14 40  1  0
 17 41  1  0
 21 42  1  0
 21 43  1  0
M  END
>  <energy_abs>  (81) 
15.026834776070803

>  <SMILES>  (81) 
C[C@@H]1CCN(C[C@@H]1N(C)c2c3cc[nH]c3ncn2)C(=O)CC#N

>  <cluster_no>  (81) 
81

>  <fda_drugs_id>  (81) 
UJLAWZDWDVHWOW-YPMHNXCESA-N

>  <initial_conformation_id>  (81) 
249

>  <minimize_method>  (81) 
MMFF

$$$$

     RDKit          3D

 43 45  0  0  0  0  0  0  0  0999 V2000
   -0.1571    4.2192    0.7382 C   0  0  0  0  0  0  0  0  0  0  0  0
   -0.6753    3.1310    1.6868 C   0  0  2  0  0  0  0  0  0  0  0  0
    0.1809    3.0511    2.9562 C   0  0  0  0  0  0  0  0  0  0  0  0
    1.5882    2.5481    2.6688 C   0  0  0  0  0  0  0  0  0  0  0  0
    1.5978    1.2717    1.9503 N   0  0  0  0  0  0  0  0  0  0  0  0
    0.6898    1.1781    0.7896 C   0  0  0  0  0  0  0  0  0  0  0  0
   -0.7483    1.7202    1.0447 C   0  0  2  0  0  0  0  0  0  0  0  0
   -1.5764    1.7301   -0.1872 N   0  0  0  0  0  0  0  0  0  0  0  0
   -2.9459    2.2372   -0.0701 C   0  0  0  0  0  0  0  0  0  0  0  0
   -1.5690    0.4964   -0.8672 C   0  0  0  0  0  0  0  0  0  0  0  0
   -2.2394   -0.6794   -0.4572 C   0  0  0  0  0  0  0  0  0  0  0  0
   -3.0648   -1.0892    0.6354 C   0  0  0  0  0  0  0  0  0  0  0  0
   -3.4057   -2.4130    0.4430 C   0  0  0  0  0  0  0  0  0  0  0  0
   -2.8198   -2.8212   -0.7308 N   0  0  0  0  0  0  0  0  0  0  0  0
   -2.0986   -1.7913   -1.2747 C   0  0  0  0  0  0  0  0  0  0  0  0
   -1.3852   -1.8792   -2.4084 N   0  0  0  0  0  0  0  0  0  0  0  0
   -0.7778   -0.7176   -2.6992 C   0  0  0  0  0  0  0  0  0  0  0  0
   -0.8198    0.4321   -1.9998 N   0  0  0  0  0  0  0  0  0  0  0  0
    2.7913    0.5371    2.0406 C   0  0  0  0  0  0  0  0  0  0  0  0
    3.6864    0.8502    2.8356 O   0  0  0  0  0  0  0  0  0  0  0  0
    2.9998   -0.6719    1.1507 C   0  0  0  0  0  0  0  0  0  0  0  0
    3.7031   -0.2687   -0.0639 C   0  0  0  0  0  0  0  0  0  0  0  0
    4.2879    0.0474   -1.0153 N   0  0  0  0  0  0  0  0  0  0  0  0
    0.8294    3.9890    0.3302 H   0  0  0  0  0  0  0  0  0  0  0  0
   -0.0814    5.1795    1.2596 H   0  0  0  0  0  0  0  0  0  0  0  0
   -0.8330    4.3635   -0.1068 H   0  0  0  0  0  0  0  0  0  0  0  0
   -1.6811    3.4310    2.0060 H   0  0  0  0  0  0  0  0  0  0  0  0
    0.2317    4.0321    3.4415 H   0  0  0  0  0  0  0  0  0  0  0  0
   -0.3036    2.3713    3.6687 H   0  0  0  0  0  0  0  0  0  0  0  0
    2.1355    2.4539    3.6177 H   0  0  0  0  0  0  0  0  0  0  0  0
    2.1462    3.2729    2.0565 H   0  0  0  0  0  0  0  0  0  0  0  0
    1.1623    1.6941   -0.0524 H   0  0  0  0  0  0  0  0  0  0  0  0
    0.6151    0.1234    0.4987 H   0  0  0  0  0  0  0  0  0  0  0  0
   -1.2246    1.0583    1.7819 H   0  0  0  0  0  0  0  0  0  0  0  0
   -3.4889    1.7826    0.7628 H   0  0  0  0  0  0  0  0  0  0  0  0
   -3.5201    2.0767   -0.9920 H   0  0  0  0  0  0  0  0  0  0  0  0
   -2.9354    3.3175    0.0878 H   0  0  0  0  0  0  0  0  0  0  0  0
   -3.3765   -0.4837    1.4772 H   0  0  0  0  0  0  0  0  0  0  0  0
   -4.0103   -3.0933    1.0318 H   0  0  0  0  0  0  0  0  0  0  0  0
   -2.8856   -3.7396   -1.1442 H   0  0  0  0  0  0  0  0  0  0  0  0
   -0.1735   -0.7028   -3.6051 H   0  0  0  0  0  0  0  0  0  0  0  0
    2.0636   -1.2038    0.9558 H   0  0  0  0  0  0  0  0  0  0  0  0
    3.6182   -1.3884    1.7152 H   0  0  0  0  0  0  0  0  0  0  0  0
  1  2  1  0
  2  3  1  0
  3  4  1  0
  4  5  1  0
  5  6  1  0
  6  7  1  0
  7  8  1  0
  8  9  1  0
  8 10  1  0
 10 11  2  0
 11 12  1  0
 12 13  2  0
 13 14  1  0
 14 15  1  0
 15 16  2  0
 16 17  1  0
 17 18  2  0
  5 19  1  0
 19 20  2  0
 19 21  1  0
 21 22  1  0
 22 23  3  0
  7  2  1  0
 18 10  1  0
 15 11  1  0
  1 24  1  0
  1 25  1  0
  1 26  1  0
  2 27  1  1
  3 28  1  0
  3 29  1  0
  4 30  1  0
  4 31  1  0
  6 32  1  0
  6 33  1  0
  7 34  1  1
  9 35  1  0
  9 36  1  0
  9 37  1  0
 12 38  1  0
 13 39  1  0
 14 40  1  0
 17 41  1  0
 21 42  1  0
 21 43  1  0
M  END
>  <energy_abs>  (82) 
14.982902577285504

>  <SMILES>  (82) 
C[C@@H]1CCN(C[C@@H]1N(C)c2c3cc[nH]c3ncn2)C(=O)CC#N

>  <cluster_no>  (82) 
82

>  <fda_drugs_id>  (82) 
UJLAWZDWDVHWOW-YPMHNXCESA-N

>  <initial_conformation_id>  (82) 
245

>  <minimize_method>  (82) 
MMFF

$$$$

     RDKit          3D

 43 45  0  0  0  0  0  0  0  0999 V2000
   -1.4984    3.2651    1.3913 C   0  0  0  0  0  0  0  0  0  0  0  0
   -0.1234    2.5966    1.3561 C   0  0  2  0  0  0  0  0  0  0  0  0
    0.9579    3.5572    0.8489 C   0  0  0  0  0  0  0  0  0  0  0  0
    2.3465    2.9614    1.0779 C   0  0  0  0  0  0  0  0  0  0  0  0
    2.4315    1.5357    0.7624 N   0  0  0  0  0  0  0  0  0  0  0  0
    1.3295    0.9687   -0.0257 C   0  0  0  0  0  0  0  0  0  0  0  0
   -0.0671    1.2260    0.6070 C   0  0  2  0  0  0  0  0  0  0  0  0
   -1.1923    1.0790   -0.3545 N   0  0  0  0  0  0  0  0  0  0  0  0
   -1.0890    1.7251   -1.6620 C   0  0  0  0  0  0  0  0  0  0  0  0
   -1.6628   -0.2427   -0.4899 C   0  0  0  0  0  0  0  0  0  0  0  0
   -2.9846   -0.5485   -0.8811 C   0  0  0  0  0  0  0  0  0  0  0  0
   -4.1682    0.1832   -1.1951 C   0  0  0  0  0  0  0  0  0  0  0  0
   -5.1602   -0.7246   -1.5025 C   0  0  0  0  0  0  0  0  0  0  0  0
   -4.6260   -1.9810   -1.3742 N   0  0  0  0  0  0  0  0  0  0  0  0
   -3.3166   -1.8905   -0.9885 C   0  0  0  0  0  0  0  0  0  0  0  0
   -2.5211   -2.9433   -0.7571 N   0  0  0  0  0  0  0  0  0  0  0  0
   -1.2985   -2.5476   -0.3700 C   0  0  0  0  0  0  0  0  0  0  0  0
   -0.8384   -1.2893   -0.2246 N   0  0  0  0  0  0  0  0  0  0  0  0
    3.5573    0.7525    1.0043 C   0  0  0  0  0  0  0  0  0  0  0  0
    3.6427   -0.4160    0.6200 O   0  0  0  0  0  0  0  0  0  0  0  0
    4.7123    1.3671    1.7649 C   0  0  0  0  0  0  0  0  0  0  0  0
    4.4886    1.2603    3.2050 C   0  0  0  0  0  0  0  0  0  0  0  0
    4.3224    1.2240    4.3534 N   0  0  0  0  0  0  0  0  0  0  0  0
   -2.2615    2.5722    1.7611 H   0  0  0  0  0  0  0  0  0  0  0  0
   -1.8040    3.6286    0.4057 H   0  0  0  0  0  0  0  0  0  0  0  0
   -1.4843    4.1285    2.0658 H   0  0  0  0  0  0  0  0  0  0  0  0
    0.1282    2.3823    2.4063 H   0  0  0  0  0  0  0  0  0  0  0  0
    0.8951    4.5239    1.3623 H   0  0  0  0  0  0  0  0  0  0  0  0
    0.8140    3.7620   -0.2178 H   0  0  0  0  0  0  0  0  0  0  0  0
    2.6313    3.0958    2.1267 H   0  0  0  0  0  0  0  0  0  0  0  0
    3.0834    3.4923    0.4650 H   0  0  0  0  0  0  0  0  0  0  0  0
    1.4739   -0.1051   -0.1777 H   0  0  0  0  0  0  0  0  0  0  0  0
    1.4150    1.4278   -1.0168 H   0  0  0  0  0  0  0  0  0  0  0  0
   -0.1997    0.4881    1.4133 H   0  0  0  0  0  0  0  0  0  0  0  0
   -2.0725    1.8584   -2.1239 H   0  0  0  0  0  0  0  0  0  0  0  0
   -0.4607    1.1499   -2.3526 H   0  0  0  0  0  0  0  0  0  0  0  0
   -0.6598    2.7266   -1.5718 H   0  0  0  0  0  0  0  0  0  0  0  0
   -4.2769    1.2597   -1.1849 H   0  0  0  0  0  0  0  0  0  0  0  0
   -6.1944   -0.5869   -1.7888 H   0  0  0  0  0  0  0  0  0  0  0  0
   -5.1073   -2.8565   -1.5196 H   0  0  0  0  0  0  0  0  0  0  0  0
   -0.5883   -3.3383   -0.1470 H   0  0  0  0  0  0  0  0  0  0  0  0
    5.6247    0.8278    1.4842 H   0  0  0  0  0  0  0  0  0  0  0  0
    4.8729    2.4043    1.4590 H   0  0  0  0  0  0  0  0  0  0  0  0
  1  2  1  0
  2  3  1  0
  3  4  1  0
  4  5  1  0
  5  6  1  0
  6  7  1  0
  7  8  1  0
  8  9  1  0
  8 10  1  0
 10 11  2  0
 11 12  1  0
 12 13  2  0
 13 14  1  0
 14 15  1  0
 15 16  2  0
 16 17  1  0
 17 18  2  0
  5 19  1  0
 19 20  2  0
 19 21  1  0
 21 22  1  0
 22 23  3  0
  7  2  1  0
 18 10  1  0
 15 11  1  0
  1 24  1  0
  1 25  1  0
  1 26  1  0
  2 27  1  1
  3 28  1  0
  3 29  1  0
  4 30  1  0
  4 31  1  0
  6 32  1  0
  6 33  1  0
  7 34  1  1
  9 35  1  0
  9 36  1  0
  9 37  1  0
 12 38  1  0
 13 39  1  0
 14 40  1  0
 17 41  1  0
 21 42  1  0
 21 43  1  0
M  END
>  <energy_abs>  (83) 
15.34260012306655

>  <SMILES>  (83) 
C[C@@H]1CCN(C[C@@H]1N(C)c2c3cc[nH]c3ncn2)C(=O)CC#N

>  <cluster_no>  (83) 
83

>  <fda_drugs_id>  (83) 
UJLAWZDWDVHWOW-YPMHNXCESA-N

>  <initial_conformation_id>  (83) 
242

>  <minimize_method>  (83) 
MMFF

$$$$

     RDKit          3D

 43 45  0  0  0  0  0  0  0  0999 V2000
    1.0530    1.6232   -1.2171 C   0  0  0  0  0  0  0  0  0  0  0  0
   -0.0544    2.0185   -0.2357 C   0  0  2  0  0  0  0  0  0  0  0  0
    0.3279    3.3318    0.4705 C   0  0  0  0  0  0  0  0  0  0  0  0
    1.5623    3.1542    1.3564 C   0  0  0  0  0  0  0  0  0  0  0  0
    1.5725    1.8807    2.0792 N   0  0  0  0  0  0  0  0  0  0  0  0
    0.2836    1.1938    2.2070 C   0  0  0  0  0  0  0  0  0  0  0  0
   -0.4441    0.9688    0.8485 C   0  0  2  0  0  0  0  0  0  0  0  0
   -0.4196   -0.4458    0.4150 N   0  0  0  0  0  0  0  0  0  0  0  0
    0.8530   -1.1625    0.3372 C   0  0  0  0  0  0  0  0  0  0  0  0
   -1.3413   -0.8188   -0.5743 C   0  0  0  0  0  0  0  0  0  0  0  0
   -2.7423   -0.6497   -0.4630 C   0  0  0  0  0  0  0  0  0  0  0  0
   -3.6649   -0.1913    0.5268 C   0  0  0  0  0  0  0  0  0  0  0  0
   -4.9387   -0.2870    0.0064 C   0  0  0  0  0  0  0  0  0  0  0  0
   -4.8293   -0.8066   -1.2563 N   0  0  0  0  0  0  0  0  0  0  0  0
   -3.5148   -1.0515   -1.5442 C   0  0  0  0  0  0  0  0  0  0  0  0
   -3.0890   -1.5996   -2.6896 N   0  0  0  0  0  0  0  0  0  0  0  0
   -1.7585   -1.7615   -2.6793 C   0  0  0  0  0  0  0  0  0  0  0  0
   -0.8883   -1.4211   -1.7102 N   0  0  0  0  0  0  0  0  0  0  0  0
    2.6560    1.4145    2.8179 C   0  0  0  0  0  0  0  0  0  0  0  0
    2.5826    0.4077    3.5262 O   0  0  0  0  0  0  0  0  0  0  0  0
    3.9637    2.1709    2.7360 C   0  0  0  0  0  0  0  0  0  0  0  0
    4.7299    1.7292    1.5726 C   0  0  0  0  0  0  0  0  0  0  0  0
    5.3426    1.4206    0.6362 N   0  0  0  0  0  0  0  0  0  0  0  0
    0.7225    0.8276   -1.8896 H   0  0  0  0  0  0  0  0  0  0  0  0
    1.9627    1.2927   -0.7079 H   0  0  0  0  0  0  0  0  0  0  0  0
    1.3224    2.4735   -1.8540 H   0  0  0  0  0  0  0  0  0  0  0  0
   -0.9487    2.2156   -0.8428 H   0  0  0  0  0  0  0  0  0  0  0  0
   -0.5179    3.6643    1.0866 H   0  0  0  0  0  0  0  0  0  0  0  0
    0.5078    4.1321   -0.2570 H   0  0  0  0  0  0  0  0  0  0  0  0
    1.6080    3.9627    2.0949 H   0  0  0  0  0  0  0  0  0  0  0  0
    2.4693    3.2190    0.7473 H   0  0  0  0  0  0  0  0  0  0  0  0
    0.3747    0.2556    2.7643 H   0  0  0  0  0  0  0  0  0  0  0  0
   -0.3325    1.8493    2.8379 H   0  0  0  0  0  0  0  0  0  0  0  0
   -1.4836    1.2012    1.1058 H   0  0  0  0  0  0  0  0  0  0  0  0
    1.3968   -0.9710   -0.5924 H   0  0  0  0  0  0  0  0  0  0  0  0
    1.5165   -0.9022    1.1655 H   0  0  0  0  0  0  0  0  0  0  0  0
    0.6820   -2.2434    0.4129 H   0  0  0  0  0  0  0  0  0  0  0  0
   -3.4239    0.1545    1.5228 H   0  0  0  0  0  0  0  0  0  0  0  0
   -5.9058   -0.0483    0.4284 H   0  0  0  0  0  0  0  0  0  0  0  0
   -5.5882   -1.0158   -1.8885 H   0  0  0  0  0  0  0  0  0  0  0  0
   -1.3261   -2.2226   -3.5617 H   0  0  0  0  0  0  0  0  0  0  0  0
    3.7900    3.2501    2.7188 H   0  0  0  0  0  0  0  0  0  0  0  0
    4.5257    1.9722    3.6561 H   0  0  0  0  0  0  0  0  0  0  0  0
  1  2  1  0
  2  3  1  0
  3  4  1  0
  4  5  1  0
  5  6  1  0
  6  7  1  0
  7  8  1  0
  8  9  1  0
  8 10  1  0
 10 11  2  0
 11 12  1  0
 12 13  2  0
 13 14  1  0
 14 15  1  0
 15 16  2  0
 16 17  1  0
 17 18  2  0
  5 19  1  0
 19 20  2  0
 19 21  1  0
 21 22  1  0
 22 23  3  0
  7  2  1  0
 18 10  1  0
 15 11  1  0
  1 24  1  0
  1 25  1  0
  1 26  1  0
  2 27  1  6
  3 28  1  0
  3 29  1  0
  4 30  1  0
  4 31  1  0
  6 32  1  0
  6 33  1  0
  7 34  1  1
  9 35  1  0
  9 36  1  0
  9 37  1  0
 12 38  1  0
 13 39  1  0
 14 40  1  0
 17 41  1  0
 21 42  1  0
 21 43  1  0
M  END
>  <energy_abs>  (84) 
18.552949951554528

>  <SMILES>  (84) 
C[C@@H]1CCN(C[C@@H]1N(C)c2c3cc[nH]c3ncn2)C(=O)CC#N

>  <cluster_no>  (84) 
84

>  <fda_drugs_id>  (84) 
UJLAWZDWDVHWOW-YPMHNXCESA-N

>  <initial_conformation_id>  (84) 
241

>  <minimize_method>  (84) 
MMFF

$$$$

     RDKit          3D

 43 45  0  0  0  0  0  0  0  0999 V2000
   -1.2268    3.9043   -0.4024 C   0  0  0  0  0  0  0  0  0  0  0  0
   -0.0923    3.1642    0.3050 C   0  0  2  0  0  0  0  0  0  0  0  0
    1.2675    3.8349    0.0754 C   0  0  0  0  0  0  0  0  0  0  0  0
    2.3162    3.2461    1.0221 C   0  0  0  0  0  0  0  0  0  0  0  0
    2.2110    1.7957    1.1840 N   0  0  0  0  0  0  0  0  0  0  0  0
    1.4322    1.0842    0.1661 C   0  0  0  0  0  0  0  0  0  0  0  0
   -0.0174    1.6315    0.0329 C   0  0  2  0  0  0  0  0  0  0  0  0
   -0.6540    1.2326   -1.2489 N   0  0  0  0  0  0  0  0  0  0  0  0
    0.0375    1.5318   -2.5038 C   0  0  0  0  0  0  0  0  0  0  0  0
   -1.1185   -0.1002   -1.2121 C   0  0  0  0  0  0  0  0  0  0  0  0
   -2.2260   -0.5021   -0.4352 C   0  0  0  0  0  0  0  0  0  0  0  0
   -3.1697    0.1306    0.4266 C   0  0  0  0  0  0  0  0  0  0  0  0
   -4.0292   -0.8391    0.8991 C   0  0  0  0  0  0  0  0  0  0  0  0
   -3.6470   -2.0357    0.3491 N   0  0  0  0  0  0  0  0  0  0  0  0
   -2.5677   -1.8452   -0.4699 C   0  0  0  0  0  0  0  0  0  0  0  0
   -1.9677   -2.8152   -1.1732 N   0  0  0  0  0  0  0  0  0  0  0  0
   -0.9446   -2.3285   -1.8912 C   0  0  0  0  0  0  0  0  0  0  0  0
   -0.4930   -1.0590   -1.9477 N   0  0  0  0  0  0  0  0  0  0  0  0
    2.9969    1.2040    2.1662 C   0  0  0  0  0  0  0  0  0  0  0  0
    3.7324    1.8793    2.8923 O   0  0  0  0  0  0  0  0  0  0  0  0
    2.9494   -0.2962    2.3468 C   0  0  0  0  0  0  0  0  0  0  0  0
    1.7192   -0.6868    3.0327 C   0  0  0  0  0  0  0  0  0  0  0  0
    0.7337   -1.0126    3.5524 N   0  0  0  0  0  0  0  0  0  0  0  0
   -1.0646    3.9830   -1.4805 H   0  0  0  0  0  0  0  0  0  0  0  0
   -2.1867    3.4071   -0.2298 H   0  0  0  0  0  0  0  0  0  0  0  0
   -1.3121    4.9255   -0.0143 H   0  0  0  0  0  0  0  0  0  0  0  0
   -0.3028    3.2716    1.3806 H   0  0  0  0  0  0  0  0  0  0  0  0
    1.5877    3.6946   -0.9633 H   0  0  0  0  0  0  0  0  0  0  0  0
    1.2047    4.9171    0.2392 H   0  0  0  0  0  0  0  0  0  0  0  0
    3.3238    3.4783    0.6578 H   0  0  0  0  0  0  0  0  0  0  0  0
    2.2162    3.7047    2.0137 H   0  0  0  0  0  0  0  0  0  0  0  0
    1.9990    1.1992   -0.7638 H   0  0  0  0  0  0  0  0  0  0  0  0
    1.3903    0.0111    0.3622 H   0  0  0  0  0  0  0  0  0  0  0  0
   -0.5849    1.1916    0.8651 H   0  0  0  0  0  0  0  0  0  0  0  0
    0.3506    2.5782   -2.5398 H   0  0  0  0  0  0  0  0  0  0  0  0
    0.9311    0.9170   -2.6590 H   0  0  0  0  0  0  0  0  0  0  0  0
   -0.6372    1.3808   -3.3553 H   0  0  0  0  0  0  0  0  0  0  0  0
   -3.2091    1.1838    0.6709 H   0  0  0  0  0  0  0  0  0  0  0  0
   -4.8731   -0.7817    1.5737 H   0  0  0  0  0  0  0  0  0  0  0  0
   -4.0830   -2.9331    0.5035 H   0  0  0  0  0  0  0  0  0  0  0  0
   -0.4091   -3.0482   -2.5030 H   0  0  0  0  0  0  0  0  0  0  0  0
    3.8180   -0.5914    2.9475 H   0  0  0  0  0  0  0  0  0  0  0  0
    3.0677   -0.7998    1.3834 H   0  0  0  0  0  0  0  0  0  0  0  0
  1  2  1  0
  2  3  1  0
  3  4  1  0
  4  5  1  0
  5  6  1  0
  6  7  1  0
  7  8  1  0
  8  9  1  0
  8 10  1  0
 10 11  2  0
 11 12  1  0
 12 13  2  0
 13 14  1  0
 14 15  1  0
 15 16  2  0
 16 17  1  0
 17 18  2  0
  5 19  1  0
 19 20  2  0
 19 21  1  0
 21 22  1  0
 22 23  3  0
  7  2  1  0
 18 10  1  0
 15 11  1  0
  1 24  1  0
  1 25  1  0
  1 26  1  0
  2 27  1  1
  3 28  1  0
  3 29  1  0
  4 30  1  0
  4 31  1  0
  6 32  1  0
  6 33  1  0
  7 34  1  1
  9 35  1  0
  9 36  1  0
  9 37  1  0
 12 38  1  0
 13 39  1  0
 14 40  1  0
 17 41  1  0
 21 42  1  0
 21 43  1  0
M  END
>  <energy_abs>  (85) 
14.336950740439256

>  <SMILES>  (85) 
C[C@@H]1CCN(C[C@@H]1N(C)c2c3cc[nH]c3ncn2)C(=O)CC#N

>  <cluster_no>  (85) 
85

>  <fda_drugs_id>  (85) 
UJLAWZDWDVHWOW-YPMHNXCESA-N

>  <initial_conformation_id>  (85) 
240

>  <minimize_method>  (85) 
MMFF

$$$$

     RDKit          3D

 43 45  0  0  0  0  0  0  0  0999 V2000
   -1.7049    3.9272    1.0923 C   0  0  0  0  0  0  0  0  0  0  0  0
   -0.9893    2.7207    1.6934 C   0  0  2  0  0  0  0  0  0  0  0  0
    0.0786    3.2181    2.6894 C   0  0  0  0  0  0  0  0  0  0  0  0
    1.1214    2.1549    3.0102 C   0  0  0  0  0  0  0  0  0  0  0  0
    1.8501    1.7315    1.8135 N   0  0  0  0  0  0  0  0  0  0  0  0
    1.1346    1.8366    0.5343 C   0  0  0  0  0  0  0  0  0  0  0  0
   -0.3916    1.6754    0.7054 C   0  0  2  0  0  0  0  0  0  0  0  0
   -1.0803    1.5755   -0.5811 N   0  0  0  0  0  0  0  0  0  0  0  0
   -0.9607    2.5919   -1.6176 C   0  0  0  0  0  0  0  0  0  0  0  0
   -1.8411    0.4659   -0.9380 C   0  0  0  0  0  0  0  0  0  0  0  0
   -1.5914   -0.8782   -0.5620 C   0  0  0  0  0  0  0  0  0  0  0  0
   -0.5896   -1.6029    0.1556 C   0  0  0  0  0  0  0  0  0  0  0  0
   -0.9264   -2.9403    0.1458 C   0  0  0  0  0  0  0  0  0  0  0  0
   -2.0876   -3.0651   -0.5667 N   0  0  0  0  0  0  0  0  0  0  0  0
   -2.4852   -1.8382   -1.0230 C   0  0  0  0  0  0  0  0  0  0  0  0
   -3.5618   -1.6461   -1.7975 N   0  0  0  0  0  0  0  0  0  0  0  0
   -3.6896   -0.3551   -2.1292 C   0  0  0  0  0  0  0  0  0  0  0  0
   -2.9056    0.6773   -1.7657 N   0  0  0  0  0  0  0  0  0  0  0  0
    3.1260    1.2060    1.9778 C   0  0  0  0  0  0  0  0  0  0  0  0
    3.6223    1.0489    3.0965 O   0  0  0  0  0  0  0  0  0  0  0  0
    3.9254    0.8367    0.7490 C   0  0  0  0  0  0  0  0  0  0  0  0
    3.6897   -0.5606    0.3977 C   0  0  0  0  0  0  0  0  0  0  0  0
    3.4993   -1.6618    0.0862 N   0  0  0  0  0  0  0  0  0  0  0  0
   -2.0849    4.5772    1.8894 H   0  0  0  0  0  0  0  0  0  0  0  0
   -1.0386    4.5321    0.4690 H   0  0  0  0  0  0  0  0  0  0  0  0
   -2.5699    3.6289    0.4952 H   0  0  0  0  0  0  0  0  0  0  0  0
   -1.7545    2.1865    2.2790 H   0  0  0  0  0  0  0  0  0  0  0  0
    0.5954    4.0953    2.2766 H   0  0  0  0  0  0  0  0  0  0  0  0
   -0.4111    3.5470    3.6127 H   0  0  0  0  0  0  0  0  0  0  0  0
    0.6501    1.2660    3.4460 H   0  0  0  0  0  0  0  0  0  0  0  0
    1.8272    2.5470    3.7482 H   0  0  0  0  0  0  0  0  0  0  0  0
    1.5062    1.0832   -0.1680 H   0  0  0  0  0  0  0  0  0  0  0  0
    1.3869    2.8195    0.1194 H   0  0  0  0  0  0  0  0  0  0  0  0
   -0.5190    0.7315    1.2480 H   0  0  0  0  0  0  0  0  0  0  0  0
   -1.9178    3.0945   -1.7993 H   0  0  0  0  0  0  0  0  0  0  0  0
   -0.6110    2.1439   -2.5566 H   0  0  0  0  0  0  0  0  0  0  0  0
   -0.2348    3.3638   -1.3520 H   0  0  0  0  0  0  0  0  0  0  0  0
    0.3034   -1.2065    0.6184 H   0  0  0  0  0  0  0  0  0  0  0  0
   -0.4297   -3.8050    0.5660 H   0  0  0  0  0  0  0  0  0  0  0  0
   -2.5763   -3.9233   -0.7728 H   0  0  0  0  0  0  0  0  0  0  0  0
   -4.5286   -0.1058   -2.7701 H   0  0  0  0  0  0  0  0  0  0  0  0
    3.7029    1.5132   -0.0826 H   0  0  0  0  0  0  0  0  0  0  0  0
    4.9884    0.9889    0.9844 H   0  0  0  0  0  0  0  0  0  0  0  0
  1  2  1  0
  2  3  1  0
  3  4  1  0
  4  5  1  0
  5  6  1  0
  6  7  1  0
  7  8  1  0
  8  9  1  0
  8 10  1  0
 10 11  2  0
 11 12  1  0
 12 13  2  0
 13 14  1  0
 14 15  1  0
 15 16  2  0
 16 17  1  0
 17 18  2  0
  5 19  1  0
 19 20  2  0
 19 21  1  0
 21 22  1  0
 22 23  3  0
  7  2  1  0
 18 10  1  0
 15 11  1  0
  1 24  1  0
  1 25  1  0
  1 26  1  0
  2 27  1  1
  3 28  1  0
  3 29  1  0
  4 30  1  0
  4 31  1  0
  6 32  1  0
  6 33  1  0
  7 34  1  1
  9 35  1  0
  9 36  1  0
  9 37  1  0
 12 38  1  0
 13 39  1  0
 14 40  1  0
 17 41  1  0
 21 42  1  0
 21 43  1  0
M  END
>  <energy_abs>  (86) 
20.077882641350833

>  <SMILES>  (86) 
C[C@@H]1CCN(C[C@@H]1N(C)c2c3cc[nH]c3ncn2)C(=O)CC#N

>  <cluster_no>  (86) 
86

>  <fda_drugs_id>  (86) 
UJLAWZDWDVHWOW-YPMHNXCESA-N

>  <initial_conformation_id>  (86) 
236

>  <minimize_method>  (86) 
MMFF

$$$$

     RDKit          3D

 43 45  0  0  0  0  0  0  0  0999 V2000
   -1.6358    3.4299    0.2406 C   0  0  0  0  0  0  0  0  0  0  0  0
   -0.4991    2.8235    1.0642 C   0  0  2  0  0  0  0  0  0  0  0  0
    0.8543    3.3693    0.5987 C   0  0  0  0  0  0  0  0  0  0  0  0
    2.0077    2.8021    1.4199 C   0  0  0  0  0  0  0  0  0  0  0  0
    1.9960    1.3388    1.4755 N   0  0  0  0  0  0  0  0  0  0  0  0
    0.7156    0.7338    1.8778 C   0  0  0  0  0  0  0  0  0  0  0  0
   -0.5253    1.2757    1.1242 C   0  0  2  0  0  0  0  0  0  0  0  0
   -0.7114    0.6474   -0.2121 N   0  0  0  0  0  0  0  0  0  0  0  0
    0.4317    0.3159   -1.0405 C   0  0  0  0  0  0  0  0  0  0  0  0
   -1.9196   -0.0362   -0.4099 C   0  0  0  0  0  0  0  0  0  0  0  0
   -2.1506   -1.1357   -1.2841 C   0  0  0  0  0  0  0  0  0  0  0  0
   -1.3930   -1.9659   -2.1718 C   0  0  0  0  0  0  0  0  0  0  0  0
   -2.2395   -2.8961   -2.7377 C   0  0  0  0  0  0  0  0  0  0  0  0
   -3.4878   -2.6757   -2.2265 N   0  0  0  0  0  0  0  0  0  0  0  0
   -3.4500   -1.6302   -1.3464 C   0  0  0  0  0  0  0  0  0  0  0  0
   -4.5253   -1.1957   -0.6781 N   0  0  0  0  0  0  0  0  0  0  0  0
   -4.2123   -0.1708    0.1199 C   0  0  0  0  0  0  0  0  0  0  0  0
   -3.0100    0.4075    0.2867 N   0  0  0  0  0  0  0  0  0  0  0  0
    3.1428    0.5658    1.6694 C   0  0  0  0  0  0  0  0  0  0  0  0
    3.0814   -0.6154    2.0211 O   0  0  0  0  0  0  0  0  0  0  0  0
    4.4963    1.1812    1.3922 C   0  0  0  0  0  0  0  0  0  0  0  0
    4.9568    1.9502    2.5456 C   0  0  0  0  0  0  0  0  0  0  0  0
    5.3194    2.5988    3.4374 N   0  0  0  0  0  0  0  0  0  0  0  0
   -2.6092    3.1022    0.6179 H   0  0  0  0  0  0  0  0  0  0  0  0
   -1.6135    4.5235    0.3028 H   0  0  0  0  0  0  0  0  0  0  0  0
   -1.5626    3.1587   -0.8175 H   0  0  0  0  0  0  0  0  0  0  0  0
   -0.6391    3.1776    2.0964 H   0  0  0  0  0  0  0  0  0  0  0  0
    0.8635    4.4628    0.6884 H   0  0  0  0  0  0  0  0  0  0  0  0
    1.0075    3.1503   -0.4635 H   0  0  0  0  0  0  0  0  0  0  0  0
    1.9528    3.1634    2.4541 H   0  0  0  0  0  0  0  0  0  0  0  0
    2.9450    3.1727    1.0007 H   0  0  0  0  0  0  0  0  0  0  0  0
    0.6077    0.9477    2.9495 H   0  0  0  0  0  0  0  0  0  0  0  0
    0.7583   -0.3570    1.7788 H   0  0  0  0  0  0  0  0  0  0  0  0
   -1.3666    1.0065    1.7764 H   0  0  0  0  0  0  0  0  0  0  0  0
    1.2338    1.0498   -0.9513 H   0  0  0  0  0  0  0  0  0  0  0  0
    0.1648    0.3268   -2.1027 H   0  0  0  0  0  0  0  0  0  0  0  0
    0.8482   -0.6602   -0.7711 H   0  0  0  0  0  0  0  0  0  0  0  0
   -0.3348   -1.9101   -2.3817 H   0  0  0  0  0  0  0  0  0  0  0  0
   -2.0589   -3.6916   -3.4486 H   0  0  0  0  0  0  0  0  0  0  0  0
   -4.3264   -3.1960   -2.4394 H   0  0  0  0  0  0  0  0  0  0  0  0
   -5.0248    0.2476    0.7052 H   0  0  0  0  0  0  0  0  0  0  0  0
    5.1994    0.3661    1.1831 H   0  0  0  0  0  0  0  0  0  0  0  0
    4.4608    1.7830    0.4796 H   0  0  0  0  0  0  0  0  0  0  0  0
  1  2  1  0
  2  3  1  0
  3  4  1  0
  4  5  1  0
  5  6  1  0
  6  7  1  0
  7  8  1  0
  8  9  1  0
  8 10  1  0
 10 11  2  0
 11 12  1  0
 12 13  2  0
 13 14  1  0
 14 15  1  0
 15 16  2  0
 16 17  1  0
 17 18  2  0
  5 19  1  0
 19 20  2  0
 19 21  1  0
 21 22  1  0
 22 23  3  0
  7  2  1  0
 18 10  1  0
 15 11  1  0
  1 24  1  0
  1 25  1  0
  1 26  1  0
  2 27  1  1
  3 28  1  0
  3 29  1  0
  4 30  1  0
  4 31  1  0
  6 32  1  0
  6 33  1  0
  7 34  1  1
  9 35  1  0
  9 36  1  0
  9 37  1  0
 12 38  1  0
 13 39  1  0
 14 40  1  0
 17 41  1  0
 21 42  1  0
 21 43  1  0
M  END
>  <energy_abs>  (87) 
11.07227040204835

>  <SMILES>  (87) 
C[C@@H]1CCN(C[C@@H]1N(C)c2c3cc[nH]c3ncn2)C(=O)CC#N

>  <cluster_no>  (87) 
87

>  <fda_drugs_id>  (87) 
UJLAWZDWDVHWOW-YPMHNXCESA-N

>  <initial_conformation_id>  (87) 
235

>  <minimize_method>  (87) 
MMFF

$$$$

     RDKit          3D

 43 45  0  0  0  0  0  0  0  0999 V2000
   -1.0265    3.2596   -0.6175 C   0  0  0  0  0  0  0  0  0  0  0  0
   -0.6250    3.0076    0.8370 C   0  0  2  0  0  0  0  0  0  0  0  0
    0.5419    3.9275    1.2460 C   0  0  0  0  0  0  0  0  0  0  0  0
    1.8824    3.5073    0.6422 C   0  0  0  0  0  0  0  0  0  0  0  0
    2.1913    2.0969    0.8891 N   0  0  0  0  0  0  0  0  0  0  0  0
    1.1201    1.1475    0.5319 C   0  0  0  0  0  0  0  0  0  0  0  0
   -0.2296    1.5483    1.1635 C   0  0  2  0  0  0  0  0  0  0  0  0
   -1.3409    0.5845    1.0072 N   0  0  0  0  0  0  0  0  0  0  0  0
   -2.2984    0.5226    2.1030 C   0  0  0  0  0  0  0  0  0  0  0  0
   -1.5914   -0.1192   -0.1627 C   0  0  0  0  0  0  0  0  0  0  0  0
   -2.5131   -1.1941   -0.3149 C   0  0  0  0  0  0  0  0  0  0  0  0
   -3.4101   -1.9457    0.5103 C   0  0  0  0  0  0  0  0  0  0  0  0
   -4.0385   -2.8932   -0.2705 C   0  0  0  0  0  0  0  0  0  0  0  0
   -3.5564   -2.7591   -1.5426 N   0  0  0  0  0  0  0  0  0  0  0  0
   -2.6329   -1.7517   -1.5838 C   0  0  0  0  0  0  0  0  0  0  0  0
   -1.9765   -1.4009   -2.6960 N   0  0  0  0  0  0  0  0  0  0  0  0
   -1.1255   -0.4005   -2.4536 C   0  0  0  0  0  0  0  0  0  0  0  0
   -0.8988    0.2275   -1.2845 N   0  0  0  0  0  0  0  0  0  0  0  0
    3.5335    1.7421    1.0112 C   0  0  0  0  0  0  0  0  0  0  0  0
    4.4320    2.5884    1.0315 O   0  0  0  0  0  0  0  0  0  0  0  0
    3.8970    0.2786    1.1302 C   0  0  0  0  0  0  0  0  0  0  0  0
    3.5854   -0.2179    2.4695 C   0  0  0  0  0  0  0  0  0  0  0  0
    3.3223   -0.6376    3.5196 N   0  0  0  0  0  0  0  0  0  0  0  0
   -0.2473    2.9602   -1.3238 H   0  0  0  0  0  0  0  0  0  0  0  0
   -1.2273    4.3245   -0.7801 H   0  0  0  0  0  0  0  0  0  0  0  0
   -1.9463    2.7231   -0.8684 H   0  0  0  0  0  0  0  0  0  0  0  0
   -1.4908    3.2838    1.4534 H   0  0  0  0  0  0  0  0  0  0  0  0
    0.6321    3.9066    2.3403 H   0  0  0  0  0  0  0  0  0  0  0  0
    0.3242    4.9668    0.9730 H   0  0  0  0  0  0  0  0  0  0  0  0
    1.8856    3.6570   -0.4438 H   0  0  0  0  0  0  0  0  0  0  0  0
    2.6693    4.1479    1.0550 H   0  0  0  0  0  0  0  0  0  0  0  0
    1.3721    0.1350    0.8550 H   0  0  0  0  0  0  0  0  0  0  0  0
    1.1044    1.1422   -0.5603 H   0  0  0  0  0  0  0  0  0  0  0  0
   -0.0089    1.5488    2.2432 H   0  0  0  0  0  0  0  0  0  0  0  0
   -2.1357    1.3278    2.8290 H   0  0  0  0  0  0  0  0  0  0  0  0
   -2.1912   -0.4176    2.6526 H   0  0  0  0  0  0  0  0  0  0  0  0
   -3.3280    0.6394    1.7476 H   0  0  0  0  0  0  0  0  0  0  0  0
   -3.5855   -1.8245    1.5693 H   0  0  0  0  0  0  0  0  0  0  0  0
   -4.7758   -3.6473   -0.0287 H   0  0  0  0  0  0  0  0  0  0  0  0
   -3.8160   -3.3127   -2.3462 H   0  0  0  0  0  0  0  0  0  0  0  0
   -0.5442   -0.0500   -3.3005 H   0  0  0  0  0  0  0  0  0  0  0  0
    4.9731    0.1826    0.9423 H   0  0  0  0  0  0  0  0  0  0  0  0
    3.4056   -0.3031    0.3454 H   0  0  0  0  0  0  0  0  0  0  0  0
  1  2  1  0
  2  3  1  0
  3  4  1  0
  4  5  1  0
  5  6  1  0
  6  7  1  0
  7  8  1  0
  8  9  1  0
  8 10  1  0
 10 11  2  0
 11 12  1  0
 12 13  2  0
 13 14  1  0
 14 15  1  0
 15 16  2  0
 16 17  1  0
 17 18  2  0
  5 19  1  0
 19 20  2  0
 19 21  1  0
 21 22  1  0
 22 23  3  0
  7  2  1  0
 18 10  1  0
 15 11  1  0
  1 24  1  0
  1 25  1  0
  1 26  1  0
  2 27  1  1
  3 28  1  0
  3 29  1  0
  4 30  1  0
  4 31  1  0
  6 32  1  0
  6 33  1  0
  7 34  1  1
  9 35  1  0
  9 36  1  0
  9 37  1  0
 12 38  1  0
 13 39  1  0
 14 40  1  0
 17 41  1  0
 21 42  1  0
 21 43  1  0
M  END
>  <energy_abs>  (88) 
12.355049240909759

>  <SMILES>  (88) 
C[C@@H]1CCN(C[C@@H]1N(C)c2c3cc[nH]c3ncn2)C(=O)CC#N

>  <cluster_no>  (88) 
88

>  <fda_drugs_id>  (88) 
UJLAWZDWDVHWOW-YPMHNXCESA-N

>  <initial_conformation_id>  (88) 
230

>  <minimize_method>  (88) 
MMFF

$$$$

     RDKit          3D

 43 45  0  0  0  0  0  0  0  0999 V2000
   -1.4873    3.0773    1.8180 C   0  0  0  0  0  0  0  0  0  0  0  0
   -0.1764    2.4407    1.3536 C   0  0  2  0  0  0  0  0  0  0  0  0
    0.7595    3.4876    0.7124 C   0  0  0  0  0  0  0  0  0  0  0  0
    1.8611    2.8770   -0.1538 C   0  0  0  0  0  0  0  0  0  0  0  0
    2.1013    1.4956    0.2358 N   0  0  0  0  0  0  0  0  0  0  0  0
    0.9739    0.6014   -0.0535 C   0  0  0  0  0  0  0  0  0  0  0  0
   -0.3705    1.1338    0.5286 C   0  0  2  0  0  0  0  0  0  0  0  0
   -1.4552    1.2504   -0.4856 N   0  0  0  0  0  0  0  0  0  0  0  0
   -1.2681    2.1362   -1.6322 C   0  0  0  0  0  0  0  0  0  0  0  0
   -1.9213   -0.0221   -0.8895 C   0  0  0  0  0  0  0  0  0  0  0  0
   -2.7048   -0.8491   -0.0565 C   0  0  0  0  0  0  0  0  0  0  0  0
   -3.2722   -0.7640    1.2490 C   0  0  0  0  0  0  0  0  0  0  0  0
   -3.9522   -1.9388    1.4939 C   0  0  0  0  0  0  0  0  0  0  0  0
   -3.8270   -2.7299    0.3808 N   0  0  0  0  0  0  0  0  0  0  0  0
   -3.0856   -2.0802   -0.5679 C   0  0  0  0  0  0  0  0  0  0  0  0
   -2.7976   -2.5787   -1.7776 N   0  0  0  0  0  0  0  0  0  0  0  0
   -2.0685   -1.7114   -2.4963 C   0  0  0  0  0  0  0  0  0  0  0  0
   -1.6269   -0.4904   -2.1326 N   0  0  0  0  0  0  0  0  0  0  0  0
    3.0780    1.0814    1.1434 C   0  0  0  0  0  0  0  0  0  0  0  0
    3.0466   -0.0383    1.6525 O   0  0  0  0  0  0  0  0  0  0  0  0
    4.1750    2.0775    1.4625 C   0  0  0  0  0  0  0  0  0  0  0  0
    5.2042    1.5176    2.3429 C   0  0  0  0  0  0  0  0  0  0  0  0
    6.0561    1.1446    3.0383 N   0  0  0  0  0  0  0  0  0  0  0  0
   -1.2880    3.8984    2.5152 H   0  0  0  0  0  0  0  0  0  0  0  0
   -2.1126    2.3450    2.3382 H   0  0  0  0  0  0  0  0  0  0  0  0
   -2.0621    3.4864    0.9816 H   0  0  0  0  0  0  0  0  0  0  0  0
    0.3372    2.1221    2.2747 H   0  0  0  0  0  0  0  0  0  0  0  0
    0.2038    4.2257    0.1236 H   0  0  0  0  0  0  0  0  0  0  0  0
    1.2269    4.0605    1.5248 H   0  0  0  0  0  0  0  0  0  0  0  0
    2.7678    3.4837   -0.0923 H   0  0  0  0  0  0  0  0  0  0  0  0
    1.5613    2.8755   -1.2077 H   0  0  0  0  0  0  0  0  0  0  0  0
    1.1632   -0.4026    0.3423 H   0  0  0  0  0  0  0  0  0  0  0  0
    0.9392    0.4884   -1.1420 H   0  0  0  0  0  0  0  0  0  0  0  0
   -0.6903    0.3933    1.2751 H   0  0  0  0  0  0  0  0  0  0  0  0
   -2.1687    2.1592   -2.2589 H   0  0  0  0  0  0  0  0  0  0  0  0
   -0.4177    1.8509   -2.2598 H   0  0  0  0  0  0  0  0  0  0  0  0
   -1.1161    3.1658   -1.3020 H   0  0  0  0  0  0  0  0  0  0  0  0
   -3.1907    0.0730    1.9295 H   0  0  0  0  0  0  0  0  0  0  0  0
   -4.5144   -2.2755    2.3547 H   0  0  0  0  0  0  0  0  0  0  0  0
   -4.2208   -3.6505    0.2511 H   0  0  0  0  0  0  0  0  0  0  0  0
   -1.7978   -2.0330   -3.4974 H   0  0  0  0  0  0  0  0  0  0  0  0
    4.6436    2.3955    0.5249 H   0  0  0  0  0  0  0  0  0  0  0  0
    3.7251    2.9496    1.9487 H   0  0  0  0  0  0  0  0  0  0  0  0
  1  2  1  0
  2  3  1  0
  3  4  1  0
  4  5  1  0
  5  6  1  0
  6  7  1  0
  7  8  1  0
  8  9  1  0
  8 10  1  0
 10 11  2  0
 11 12  1  0
 12 13  2  0
 13 14  1  0
 14 15  1  0
 15 16  2  0
 16 17  1  0
 17 18  2  0
  5 19  1  0
 19 20  2  0
 19 21  1  0
 21 22  1  0
 22 23  3  0
  7  2  1  0
 18 10  1  0
 15 11  1  0
  1 24  1  0
  1 25  1  0
  1 26  1  0
  2 27  1  1
  3 28  1  0
  3 29  1  0
  4 30  1  0
  4 31  1  0
  6 32  1  0
  6 33  1  0
  7 34  1  1
  9 35  1  0
  9 36  1  0
  9 37  1  0
 12 38  1  0
 13 39  1  0
 14 40  1  0
 17 41  1  0
 21 42  1  0
 21 43  1  0
M  END
>  <energy_abs>  (89) 
17.238763539308763

>  <SMILES>  (89) 
C[C@@H]1CCN(C[C@@H]1N(C)c2c3cc[nH]c3ncn2)C(=O)CC#N

>  <cluster_no>  (89) 
89

>  <fda_drugs_id>  (89) 
UJLAWZDWDVHWOW-YPMHNXCESA-N

>  <initial_conformation_id>  (89) 
228

>  <minimize_method>  (89) 
MMFF

$$$$

     RDKit          3D

 43 45  0  0  0  0  0  0  0  0999 V2000
   -2.0946    3.7185    0.4886 C   0  0  0  0  0  0  0  0  0  0  0  0
   -0.6837    3.1441    0.6235 C   0  0  2  0  0  0  0  0  0  0  0  0
    0.0442    3.1778   -0.7270 C   0  0  0  0  0  0  0  0  0  0  0  0
    1.5278    2.8609   -0.5401 C   0  0  0  0  0  0  0  0  0  0  0  0
    1.7693    1.7515    0.3797 N   0  0  0  0  0  0  0  0  0  0  0  0
    0.6094    0.9114    0.6919 C   0  0  0  0  0  0  0  0  0  0  0  0
   -0.5788    1.7294    1.2845 C   0  0  2  0  0  0  0  0  0  0  0  0
   -1.8989    1.0310    1.2902 N   0  0  0  0  0  0  0  0  0  0  0  0
   -2.5484    1.0120    2.6090 C   0  0  0  0  0  0  0  0  0  0  0  0
   -1.9094   -0.2678    0.7577 C   0  0  0  0  0  0  0  0  0  0  0  0
   -2.3380   -0.5325   -0.5562 C   0  0  0  0  0  0  0  0  0  0  0  0
   -2.8452    0.2237   -1.6508 C   0  0  0  0  0  0  0  0  0  0  0  0
   -3.0771   -0.6476   -2.6949 C   0  0  0  0  0  0  0  0  0  0  0  0
   -2.7334   -1.9059   -2.2707 N   0  0  0  0  0  0  0  0  0  0  0  0
   -2.2841   -1.8512   -0.9795 C   0  0  0  0  0  0  0  0  0  0  0  0
   -1.8698   -2.9111   -0.2719 N   0  0  0  0  0  0  0  0  0  0  0  0
   -1.4919   -2.5520    0.9647 C   0  0  0  0  0  0  0  0  0  0  0  0
   -1.4754   -1.3166    1.5057 N   0  0  0  0  0  0  0  0  0  0  0  0
    3.0992    1.4283    0.6540 C   0  0  0  0  0  0  0  0  0  0  0  0
    4.0197    2.1181    0.2137 O   0  0  0  0  0  0  0  0  0  0  0  0
    3.3492    0.2090    1.5179 C   0  0  0  0  0  0  0  0  0  0  0  0
    4.7723    0.0050    1.8032 C   0  0  0  0  0  0  0  0  0  0  0  0
    5.8797   -0.2176    2.0729 N   0  0  0  0  0  0  0  0  0  0  0  0
   -2.0562    4.7335    0.0774 H   0  0  0  0  0  0  0  0  0  0  0  0
   -2.7181    3.1192   -0.1803 H   0  0  0  0  0  0  0  0  0  0  0  0
   -2.5887    3.7865    1.4620 H   0  0  0  0  0  0  0  0  0  0  0  0
   -0.1406    3.8361    1.2849 H   0  0  0  0  0  0  0  0  0  0  0  0
   -0.0524    4.1609   -1.2026 H   0  0  0  0  0  0  0  0  0  0  0  0
   -0.4118    2.4516   -1.4114 H   0  0  0  0  0  0  0  0  0  0  0  0
    1.9822    2.6148   -1.5071 H   0  0  0  0  0  0  0  0  0  0  0  0
    2.0527    3.7407   -0.1480 H   0  0  0  0  0  0  0  0  0  0  0  0
    0.3467    0.4256   -0.2546 H   0  0  0  0  0  0  0  0  0  0  0  0
    0.8762    0.1157    1.3910 H   0  0  0  0  0  0  0  0  0  0  0  0
   -0.3012    1.9212    2.3322 H   0  0  0  0  0  0  0  0  0  0  0  0
   -1.9600    0.4606    3.3525 H   0  0  0  0  0  0  0  0  0  0  0  0
   -2.6735    2.0340    2.9819 H   0  0  0  0  0  0  0  0  0  0  0  0
   -3.5512    0.5720    2.5483 H   0  0  0  0  0  0  0  0  0  0  0  0
   -3.0230    1.2904   -1.6660 H   0  0  0  0  0  0  0  0  0  0  0  0
   -3.4590   -0.4832   -3.6939 H   0  0  0  0  0  0  0  0  0  0  0  0
   -2.7962   -2.7585   -2.8082 H   0  0  0  0  0  0  0  0  0  0  0  0
   -1.1517   -3.3564    1.6102 H   0  0  0  0  0  0  0  0  0  0  0  0
    2.8127    0.3338    2.4647 H   0  0  0  0  0  0  0  0  0  0  0  0
    2.9585   -0.6730    0.9991 H   0  0  0  0  0  0  0  0  0  0  0  0
  1  2  1  0
  2  3  1  0
  3  4  1  0
  4  5  1  0
  5  6  1  0
  6  7  1  0
  7  8  1  0
  8  9  1  0
  8 10  1  0
 10 11  2  0
 11 12  1  0
 12 13  2  0
 13 14  1  0
 14 15  1  0
 15 16  2  0
 16 17  1  0
 17 18  2  0
  5 19  1  0
 19 20  2  0
 19 21  1  0
 21 22  1  0
 22 23  3  0
  7  2  1  0
 18 10  1  0
 15 11  1  0
  1 24  1  0
  1 25  1  0
  1 26  1  0
  2 27  1  1
  3 28  1  0
  3 29  1  0
  4 30  1  0
  4 31  1  0
  6 32  1  0
  6 33  1  0
  7 34  1  1
  9 35  1  0
  9 36  1  0
  9 37  1  0
 12 38  1  0
 13 39  1  0
 14 40  1  0
 17 41  1  0
 21 42  1  0
 21 43  1  0
M  END
>  <energy_abs>  (90) 
18.378432970471856

>  <SMILES>  (90) 
C[C@@H]1CCN(C[C@@H]1N(C)c2c3cc[nH]c3ncn2)C(=O)CC#N

>  <cluster_no>  (90) 
90

>  <fda_drugs_id>  (90) 
UJLAWZDWDVHWOW-YPMHNXCESA-N

>  <initial_conformation_id>  (90) 
227

>  <minimize_method>  (90) 
MMFF

$$$$

     RDKit          3D

 43 45  0  0  0  0  0  0  0  0999 V2000
   -0.8305    2.7630   -1.3735 C   0  0  0  0  0  0  0  0  0  0  0  0
   -0.7294    3.0934    0.1170 C   0  0  2  0  0  0  0  0  0  0  0  0
    0.3503    4.1627    0.3697 C   0  0  0  0  0  0  0  0  0  0  0  0
    1.7762    3.6290    0.2296 C   0  0  0  0  0  0  0  0  0  0  0  0
    2.0135    2.4151    1.0162 N   0  0  0  0  0  0  0  0  0  0  0  0
    1.0060    1.3498    0.8392 C   0  0  0  0  0  0  0  0  0  0  0  0
   -0.4297    1.8838    1.0319 C   0  0  2  0  0  0  0  0  0  0  0  0
   -1.5207    0.8821    1.0654 N   0  0  0  0  0  0  0  0  0  0  0  0
   -2.6945    1.2388    1.8507 C   0  0  0  0  0  0  0  0  0  0  0  0
   -1.5899   -0.1997    0.1942 C   0  0  0  0  0  0  0  0  0  0  0  0
   -2.5908   -1.2141    0.1820 C   0  0  0  0  0  0  0  0  0  0  0  0
   -3.7681   -1.5545    0.9235 C   0  0  0  0  0  0  0  0  0  0  0  0
   -4.3101   -2.7050    0.3896 C   0  0  0  0  0  0  0  0  0  0  0  0
   -3.5083   -3.0900   -0.6482 N   0  0  0  0  0  0  0  0  0  0  0  0
   -2.4698   -2.2111   -0.7812 C   0  0  0  0  0  0  0  0  0  0  0  0
   -1.5137   -2.3422   -1.7079 N   0  0  0  0  0  0  0  0  0  0  0  0
   -0.6142   -1.3601   -1.6102 C   0  0  0  0  0  0  0  0  0  0  0  0
   -0.6066   -0.3340   -0.7388 N   0  0  0  0  0  0  0  0  0  0  0  0
    3.3409    2.1486    1.3628 C   0  0  0  0  0  0  0  0  0  0  0  0
    4.2414    2.9712    1.1719 O   0  0  0  0  0  0  0  0  0  0  0  0
    3.6739    0.8305    2.0261 C   0  0  0  0  0  0  0  0  0  0  0  0
    3.9197   -0.2002    1.0196 C   0  0  0  0  0  0  0  0  0  0  0  0
    4.0968   -1.0388    0.2365 N   0  0  0  0  0  0  0  0  0  0  0  0
   -0.9822    3.6772   -1.9582 H   0  0  0  0  0  0  0  0  0  0  0  0
    0.0694    2.2735   -1.7560 H   0  0  0  0  0  0  0  0  0  0  0  0
   -1.6874    2.1130   -1.5736 H   0  0  0  0  0  0  0  0  0  0  0  0
   -1.6944    3.5284    0.4089 H   0  0  0  0  0  0  0  0  0  0  0  0
    0.2232    4.5486    1.3901 H   0  0  0  0  0  0  0  0  0  0  0  0
    0.2088    5.0165   -0.3034 H   0  0  0  0  0  0  0  0  0  0  0  0
    2.0011    3.3904   -0.8167 H   0  0  0  0  0  0  0  0  0  0  0  0
    2.4756    4.4155    0.5349 H   0  0  0  0  0  0  0  0  0  0  0  0
    1.1932    0.9577   -0.1629 H   0  0  0  0  0  0  0  0  0  0  0  0
    1.1770    0.5335    1.5443 H   0  0  0  0  0  0  0  0  0  0  0  0
   -0.4051    2.2966    2.0533 H   0  0  0  0  0  0  0  0  0  0  0  0
   -3.5902    1.3121    1.2245 H   0  0  0  0  0  0  0  0  0  0  0  0
   -2.8504    0.5167    2.6578 H   0  0  0  0  0  0  0  0  0  0  0  0
   -2.5783    2.2151    2.3359 H   0  0  0  0  0  0  0  0  0  0  0  0
   -4.1907   -1.0276    1.7662 H   0  0  0  0  0  0  0  0  0  0  0  0
   -5.1868   -3.2783    0.6608 H   0  0  0  0  0  0  0  0  0  0  0  0
   -3.6328   -3.9000   -1.2382 H   0  0  0  0  0  0  0  0  0  0  0  0
    0.2104   -1.3902   -2.3157 H   0  0  0  0  0  0  0  0  0  0  0  0
    2.8916    0.5438    2.7339 H   0  0  0  0  0  0  0  0  0  0  0  0
    4.5760    0.9815    2.6314 H   0  0  0  0  0  0  0  0  0  0  0  0
  1  2  1  0
  2  3  1  0
  3  4  1  0
  4  5  1  0
  5  6  1  0
  6  7  1  0
  7  8  1  0
  8  9  1  0
  8 10  1  0
 10 11  2  0
 11 12  1  0
 12 13  2  0
 13 14  1  0
 14 15  1  0
 15 16  2  0
 16 17  1  0
 17 18  2  0
  5 19  1  0
 19 20  2  0
 19 21  1  0
 21 22  1  0
 22 23  3  0
  7  2  1  0
 18 10  1  0
 15 11  1  0
  1 24  1  0
  1 25  1  0
  1 26  1  0
  2 27  1  1
  3 28  1  0
  3 29  1  0
  4 30  1  0
  4 31  1  0
  6 32  1  0
  6 33  1  0
  7 34  1  1
  9 35  1  0
  9 36  1  0
  9 37  1  0
 12 38  1  0
 13 39  1  0
 14 40  1  0
 17 41  1  0
 21 42  1  0
 21 43  1  0
M  END
>  <energy_abs>  (91) 
12.586784170043838

>  <SMILES>  (91) 
C[C@@H]1CCN(C[C@@H]1N(C)c2c3cc[nH]c3ncn2)C(=O)CC#N

>  <cluster_no>  (91) 
91

>  <fda_drugs_id>  (91) 
UJLAWZDWDVHWOW-YPMHNXCESA-N

>  <initial_conformation_id>  (91) 
224

>  <minimize_method>  (91) 
MMFF

$$$$

     RDKit          3D

 43 45  0  0  0  0  0  0  0  0999 V2000
   -2.4690    3.3635    1.1097 C   0  0  0  0  0  0  0  0  0  0  0  0
   -1.0672    2.9164    1.5259 C   0  0  2  0  0  0  0  0  0  0  0  0
   -0.0180    3.9783    1.1652 C   0  0  0  0  0  0  0  0  0  0  0  0
    1.4034    3.5355    1.4948 C   0  0  0  0  0  0  0  0  0  0  0  0
    1.7080    2.2139    0.9539 N   0  0  0  0  0  0  0  0  0  0  0  0
    0.7708    1.1542    1.3505 C   0  0  0  0  0  0  0  0  0  0  0  0
   -0.7098    1.4869    1.0407 C   0  0  2  0  0  0  0  0  0  0  0  0
   -1.1043    1.2120   -0.3710 N   0  0  0  0  0  0  0  0  0  0  0  0
   -0.3882    1.8701   -1.4610 C   0  0  0  0  0  0  0  0  0  0  0  0
   -1.2154   -0.1778   -0.6091 C   0  0  0  0  0  0  0  0  0  0  0  0
   -2.3098   -0.9404   -0.1514 C   0  0  0  0  0  0  0  0  0  0  0  0
   -3.5216   -0.6893    0.5560 C   0  0  0  0  0  0  0  0  0  0  0  0
   -4.1871   -1.8895    0.6956 C   0  0  0  0  0  0  0  0  0  0  0  0
   -3.4283   -2.8578    0.0894 N   0  0  0  0  0  0  0  0  0  0  0  0
   -2.2948   -2.2974   -0.4332 C   0  0  0  0  0  0  0  0  0  0  0  0
   -1.3520   -2.9744   -1.1019 N   0  0  0  0  0  0  0  0  0  0  0  0
   -0.3656   -2.1599   -1.5060 C   0  0  0  0  0  0  0  0  0  0  0  0
   -0.2414   -0.8325   -1.2999 N   0  0  0  0  0  0  0  0  0  0  0  0
    3.0066    1.9754    0.5066 C   0  0  0  0  0  0  0  0  0  0  0  0
    3.8575    2.8691    0.4731 O   0  0  0  0  0  0  0  0  0  0  0  0
    3.3681    0.5931    0.0082 C   0  0  0  0  0  0  0  0  0  0  0  0
    3.7597   -0.2644    1.1245 C   0  0  0  0  0  0  0  0  0  0  0  0
    4.0406   -0.9665    2.0054 N   0  0  0  0  0  0  0  0  0  0  0  0
   -2.5492    3.5025    0.0272 H   0  0  0  0  0  0  0  0  0  0  0  0
   -3.2192    2.6290    1.4187 H   0  0  0  0  0  0  0  0  0  0  0  0
   -2.7244    4.3169    1.5850 H   0  0  0  0  0  0  0  0  0  0  0  0
   -1.0729    2.8669    2.6254 H   0  0  0  0  0  0  0  0  0  0  0  0
   -0.2339    4.9054    1.7111 H   0  0  0  0  0  0  0  0  0  0  0  0
   -0.0773    4.2402    0.1056 H   0  0  0  0  0  0  0  0  0  0  0  0
    1.5451    3.4833    2.5813 H   0  0  0  0  0  0  0  0  0  0  0  0
    2.1055    4.2852    1.1152 H   0  0  0  0  0  0  0  0  0  0  0  0
    0.8914    1.0402    2.4361 H   0  0  0  0  0  0  0  0  0  0  0  0
    1.0451    0.1925    0.9172 H   0  0  0  0  0  0  0  0  0  0  0  0
   -1.3070    0.8201    1.6792 H   0  0  0  0  0  0  0  0  0  0  0  0
    0.6846    1.6573   -1.4589 H   0  0  0  0  0  0  0  0  0  0  0  0
   -0.7937    1.5648   -2.4345 H   0  0  0  0  0  0  0  0  0  0  0  0
   -0.5320    2.9504   -1.4216 H   0  0  0  0  0  0  0  0  0  0  0  0
   -3.8664    0.2711    0.9150 H   0  0  0  0  0  0  0  0  0  0  0  0
   -5.1316   -2.1353    1.1628 H   0  0  0  0  0  0  0  0  0  0  0  0
   -3.6539   -3.8394    0.0163 H   0  0  0  0  0  0  0  0  0  0  0  0
    0.4367   -2.6290   -2.0678 H   0  0  0  0  0  0  0  0  0  0  0  0
    2.5477    0.1662   -0.5746 H   0  0  0  0  0  0  0  0  0  0  0  0
    4.2049    0.6987   -0.6927 H   0  0  0  0  0  0  0  0  0  0  0  0
  1  2  1  0
  2  3  1  0
  3  4  1  0
  4  5  1  0
  5  6  1  0
  6  7  1  0
  7  8  1  0
  8  9  1  0
  8 10  1  0
 10 11  2  0
 11 12  1  0
 12 13  2  0
 13 14  1  0
 14 15  1  0
 15 16  2  0
 16 17  1  0
 17 18  2  0
  5 19  1  0
 19 20  2  0
 19 21  1  0
 21 22  1  0
 22 23  3  0
  7  2  1  0
 18 10  1  0
 15 11  1  0
  1 24  1  0
  1 25  1  0
  1 26  1  0
  2 27  1  1
  3 28  1  0
  3 29  1  0
  4 30  1  0
  4 31  1  0
  6 32  1  0
  6 33  1  0
  7 34  1  1
  9 35  1  0
  9 36  1  0
  9 37  1  0
 12 38  1  0
 13 39  1  0
 14 40  1  0
 17 41  1  0
 21 42  1  0
 21 43  1  0
M  END
>  <energy_abs>  (92) 
7.400491446238581

>  <SMILES>  (92) 
C[C@@H]1CCN(C[C@@H]1N(C)c2c3cc[nH]c3ncn2)C(=O)CC#N

>  <cluster_no>  (92) 
92

>  <fda_drugs_id>  (92) 
UJLAWZDWDVHWOW-YPMHNXCESA-N

>  <initial_conformation_id>  (92) 
223

>  <minimize_method>  (92) 
MMFF

$$$$

     RDKit          3D

 43 45  0  0  0  0  0  0  0  0999 V2000
   -1.5766    1.0745    2.7296 C   0  0  0  0  0  0  0  0  0  0  0  0
   -0.2005    1.1357    2.0725 C   0  0  2  0  0  0  0  0  0  0  0  0
    0.4908    2.4846    2.2871 C   0  0  0  0  0  0  0  0  0  0  0  0
    1.9813    2.3805    1.9520 C   0  0  0  0  0  0  0  0  0  0  0  0
    2.2811    1.4432    0.8648 N   0  0  0  0  0  0  0  0  0  0  0  0
    1.1967    1.1860   -0.0883 C   0  0  0  0  0  0  0  0  0  0  0  0
   -0.1237    0.7034    0.5801 C   0  0  2  0  0  0  0  0  0  0  0  0
   -1.2758    1.0847   -0.2686 N   0  0  0  0  0  0  0  0  0  0  0  0
   -1.6780    2.4815   -0.3953 C   0  0  0  0  0  0  0  0  0  0  0  0
   -2.3410    0.1782   -0.3372 C   0  0  0  0  0  0  0  0  0  0  0  0
   -2.2049   -1.1725   -0.7336 C   0  0  0  0  0  0  0  0  0  0  0  0
   -1.1544   -2.0215   -1.1977 C   0  0  0  0  0  0  0  0  0  0  0  0
   -1.6863   -3.2723   -1.4322 C   0  0  0  0  0  0  0  0  0  0  0  0
   -3.0249   -3.2120   -1.1455 N   0  0  0  0  0  0  0  0  0  0  0  0
   -3.3558   -1.9476   -0.7417 C   0  0  0  0  0  0  0  0  0  0  0  0
   -4.5981   -1.5602   -0.4242 N   0  0  0  0  0  0  0  0  0  0  0  0
   -4.6289   -0.2587   -0.1029 C   0  0  0  0  0  0  0  0  0  0  0  0
   -3.6013    0.6109   -0.0526 N   0  0  0  0  0  0  0  0  0  0  0  0
    3.5777    1.0975    0.4830 C   0  0  0  0  0  0  0  0  0  0  0  0
    3.8099    0.4896   -0.5651 O   0  0  0  0  0  0  0  0  0  0  0  0
    4.7260    1.4472    1.4046 C   0  0  0  0  0  0  0  0  0  0  0  0
    5.1512    2.8292    1.1986 C   0  0  0  0  0  0  0  0  0  0  0  0
    5.4777    3.9367    1.0787 N   0  0  0  0  0  0  0  0  0  0  0  0
   -2.2528    1.8507    2.3674 H   0  0  0  0  0  0  0  0  0  0  0  0
   -2.0430    0.0970    2.5723 H   0  0  0  0  0  0  0  0  0  0  0  0
   -1.4826    1.2162    3.8125 H   0  0  0  0  0  0  0  0  0  0  0  0
    0.4033    0.3994    2.6267 H   0  0  0  0  0  0  0  0  0  0  0  0
    0.0255    3.2551    1.6636 H   0  0  0  0  0  0  0  0  0  0  0  0
    0.3825    2.8246    3.3239 H   0  0  0  0  0  0  0  0  0  0  0  0
    2.3679    3.3673    1.6754 H   0  0  0  0  0  0  0  0  0  0  0  0
    2.5221    2.0531    2.8452 H   0  0  0  0  0  0  0  0  0  0  0  0
    1.4969    0.4399   -0.8334 H   0  0  0  0  0  0  0  0  0  0  0  0
    1.0623    2.1191   -0.6460 H   0  0  0  0  0  0  0  0  0  0  0  0
   -0.0443   -0.3897    0.6195 H   0  0  0  0  0  0  0  0  0  0  0  0
   -2.2868    2.6278   -1.2961 H   0  0  0  0  0  0  0  0  0  0  0  0
   -2.2504    2.8375    0.4657 H   0  0  0  0  0  0  0  0  0  0  0  0
   -0.8118    3.1387   -0.5102 H   0  0  0  0  0  0  0  0  0  0  0  0
   -0.1209   -1.7413   -1.3541 H   0  0  0  0  0  0  0  0  0  0  0  0
   -1.2336   -4.1883   -1.7879 H   0  0  0  0  0  0  0  0  0  0  0  0
   -3.6926   -3.9640   -1.2342 H   0  0  0  0  0  0  0  0  0  0  0  0
   -5.6036    0.1471    0.1496 H   0  0  0  0  0  0  0  0  0  0  0  0
    5.5548    0.7649    1.1808 H   0  0  0  0  0  0  0  0  0  0  0  0
    4.4561    1.2535    2.4459 H   0  0  0  0  0  0  0  0  0  0  0  0
  1  2  1  0
  2  3  1  0
  3  4  1  0
  4  5  1  0
  5  6  1  0
  6  7  1  0
  7  8  1  0
  8  9  1  0
  8 10  1  0
 10 11  2  0
 11 12  1  0
 12 13  2  0
 13 14  1  0
 14 15  1  0
 15 16  2  0
 16 17  1  0
 17 18  2  0
  5 19  1  0
 19 20  2  0
 19 21  1  0
 21 22  1  0
 22 23  3  0
  7  2  1  0
 18 10  1  0
 15 11  1  0
  1 24  1  0
  1 25  1  0
  1 26  1  0
  2 27  1  1
  3 28  1  0
  3 29  1  0
  4 30  1  0
  4 31  1  0
  6 32  1  0
  6 33  1  0
  7 34  1  1
  9 35  1  0
  9 36  1  0
  9 37  1  0
 12 38  1  0
 13 39  1  0
 14 40  1  0
 17 41  1  0
 21 42  1  0
 21 43  1  0
M  END
>  <energy_abs>  (93) 
17.79952876658293

>  <SMILES>  (93) 
C[C@@H]1CCN(C[C@@H]1N(C)c2c3cc[nH]c3ncn2)C(=O)CC#N

>  <cluster_no>  (93) 
93

>  <fda_drugs_id>  (93) 
UJLAWZDWDVHWOW-YPMHNXCESA-N

>  <initial_conformation_id>  (93) 
218

>  <minimize_method>  (93) 
MMFF

$$$$

     RDKit          3D

 43 45  0  0  0  0  0  0  0  0999 V2000
   -1.7906    2.3026    2.4637 C   0  0  0  0  0  0  0  0  0  0  0  0
   -0.5634    1.5253    2.9461 C   0  0  2  0  0  0  0  0  0  0  0  0
    0.5894    2.4949    3.2686 C   0  0  0  0  0  0  0  0  0  0  0  0
    1.1852    3.1399    2.0216 C   0  0  0  0  0  0  0  0  0  0  0  0
    1.5866    2.1577    1.0151 N   0  0  0  0  0  0  0  0  0  0  0  0
    0.6069    1.1037    0.7088 C   0  0  0  0  0  0  0  0  0  0  0  0
   -0.0272    0.4529    1.9630 C   0  0  2  0  0  0  0  0  0  0  0  0
   -0.9496   -0.6736    1.6662 N   0  0  0  0  0  0  0  0  0  0  0  0
   -1.6270   -1.2913    2.8031 C   0  0  0  0  0  0  0  0  0  0  0  0
   -1.7880   -0.5650    0.5562 C   0  0  0  0  0  0  0  0  0  0  0  0
   -1.4145   -1.0651   -0.7078 C   0  0  0  0  0  0  0  0  0  0  0  0
   -0.2916   -1.7509   -1.2569 C   0  0  0  0  0  0  0  0  0  0  0  0
   -0.5404   -1.9621   -2.5971 C   0  0  0  0  0  0  0  0  0  0  0  0
   -1.7802   -1.4455   -2.8766 N   0  0  0  0  0  0  0  0  0  0  0  0
   -2.3228   -0.9062   -1.7422 C   0  0  0  0  0  0  0  0  0  0  0  0
   -3.5323   -0.3342   -1.6739 N   0  0  0  0  0  0  0  0  0  0  0  0
   -3.8038    0.0733   -0.4235 C   0  0  0  0  0  0  0  0  0  0  0  0
   -3.0205   -0.0130    0.6706 N   0  0  0  0  0  0  0  0  0  0  0  0
    2.5889    2.5470    0.1223 C   0  0  0  0  0  0  0  0  0  0  0  0
    3.2199    3.5975    0.2704 O   0  0  0  0  0  0  0  0  0  0  0  0
    2.9053    1.6574   -1.0605 C   0  0  0  0  0  0  0  0  0  0  0  0
    3.7024    0.5063   -0.6416 C   0  0  0  0  0  0  0  0  0  0  0  0
    4.3092   -0.4330   -0.3297 N   0  0  0  0  0  0  0  0  0  0  0  0
   -1.9781    3.1693    3.1074 H   0  0  0  0  0  0  0  0  0  0  0  0
   -1.6815    2.6676    1.4388 H   0  0  0  0  0  0  0  0  0  0  0  0
   -2.6890    1.6833    2.5150 H   0  0  0  0  0  0  0  0  0  0  0  0
   -0.8402    1.0421    3.8917 H   0  0  0  0  0  0  0  0  0  0  0  0
    1.3797    1.9404    3.7920 H   0  0  0  0  0  0  0  0  0  0  0  0
    0.2498    3.2756    3.9596 H   0  0  0  0  0  0  0  0  0  0  0  0
    2.0470    3.7483    2.3181 H   0  0  0  0  0  0  0  0  0  0  0  0
    0.4646    3.8171    1.5483 H   0  0  0  0  0  0  0  0  0  0  0  0
    1.0973    0.3200    0.1293 H   0  0  0  0  0  0  0  0  0  0  0  0
   -0.1487    1.5629    0.0613 H   0  0  0  0  0  0  0  0  0  0  0  0
    0.8140   -0.0247    2.4887 H   0  0  0  0  0  0  0  0  0  0  0  0
   -0.9073   -1.4940    3.6040 H   0  0  0  0  0  0  0  0  0  0  0  0
   -2.4222   -0.6585    3.2122 H   0  0  0  0  0  0  0  0  0  0  0  0
   -2.0637   -2.2562    2.5188 H   0  0  0  0  0  0  0  0  0  0  0  0
    0.5960   -2.0606   -0.7191 H   0  0  0  0  0  0  0  0  0  0  0  0
    0.0464   -2.4463   -3.3668 H   0  0  0  0  0  0  0  0  0  0  0  0
   -2.2506   -1.4634   -3.7700 H   0  0  0  0  0  0  0  0  0  0  0  0
   -4.7762    0.5325   -0.2729 H   0  0  0  0  0  0  0  0  0  0  0  0
    3.4696    2.2532   -1.7879 H   0  0  0  0  0  0  0  0  0  0  0  0
    1.9854    1.3588   -1.5716 H   0  0  0  0  0  0  0  0  0  0  0  0
  1  2  1  0
  2  3  1  0
  3  4  1  0
  4  5  1  0
  5  6  1  0
  6  7  1  0
  7  8  1  0
  8  9  1  0
  8 10  1  0
 10 11  2  0
 11 12  1  0
 12 13  2  0
 13 14  1  0
 14 15  1  0
 15 16  2  0
 16 17  1  0
 17 18  2  0
  5 19  1  0
 19 20  2  0
 19 21  1  0
 21 22  1  0
 22 23  3  0
  7  2  1  0
 18 10  1  0
 15 11  1  0
  1 24  1  0
  1 25  1  0
  1 26  1  0
  2 27  1  1
  3 28  1  0
  3 29  1  0
  4 30  1  0
  4 31  1  0
  6 32  1  0
  6 33  1  0
  7 34  1  1
  9 35  1  0
  9 36  1  0
  9 37  1  0
 12 38  1  0
 13 39  1  0
 14 40  1  0
 17 41  1  0
 21 42  1  0
 21 43  1  0
M  END
>  <energy_abs>  (94) 
14.632586204835519

>  <SMILES>  (94) 
C[C@@H]1CCN(C[C@@H]1N(C)c2c3cc[nH]c3ncn2)C(=O)CC#N

>  <cluster_no>  (94) 
94

>  <fda_drugs_id>  (94) 
UJLAWZDWDVHWOW-YPMHNXCESA-N

>  <initial_conformation_id>  (94) 
215

>  <minimize_method>  (94) 
MMFF

$$$$

     RDKit          3D

 43 45  0  0  0  0  0  0  0  0999 V2000
   -1.7954    2.8865    1.2311 C   0  0  0  0  0  0  0  0  0  0  0  0
   -0.3202    2.4962    1.1433 C   0  0  2  0  0  0  0  0  0  0  0  0
    0.3370    3.0642   -0.1238 C   0  0  0  0  0  0  0  0  0  0  0  0
    1.8504    2.8363   -0.1063 C   0  0  0  0  0  0  0  0  0  0  0  0
    2.2414    1.4987    0.3412 N   0  0  0  0  0  0  0  0  0  0  0  0
    1.1666    0.5017    0.4146 C   0  0  0  0  0  0  0  0  0  0  0  0
    0.0064    0.9834    1.3232 C   0  0  2  0  0  0  0  0  0  0  0  0
   -1.1662    0.0829    1.3099 N   0  0  0  0  0  0  0  0  0  0  0  0
   -1.6219   -0.4317    2.5898 C   0  0  0  0  0  0  0  0  0  0  0  0
   -1.7686   -0.3225    0.1275 C   0  0  0  0  0  0  0  0  0  0  0  0
   -2.6460   -1.4299   -0.0334 C   0  0  0  0  0  0  0  0  0  0  0  0
   -3.1787   -2.4847    0.7743 C   0  0  0  0  0  0  0  0  0  0  0  0
   -3.9995   -3.2678   -0.0103 C   0  0  0  0  0  0  0  0  0  0  0  0
   -3.9843   -2.7400   -1.2715 N   0  0  0  0  0  0  0  0  0  0  0  0
   -3.1684   -1.6434   -1.3046 C   0  0  0  0  0  0  0  0  0  0  0  0
   -2.9419   -0.9268   -2.4124 N   0  0  0  0  0  0  0  0  0  0  0  0
   -2.0972    0.0793   -2.1670 C   0  0  0  0  0  0  0  0  0  0  0  0
   -1.5139    0.4043   -0.9986 N   0  0  0  0  0  0  0  0  0  0  0  0
    3.5502    1.1044    0.5928 C   0  0  0  0  0  0  0  0  0  0  0  0
    3.8360   -0.0447    0.9371 O   0  0  0  0  0  0  0  0  0  0  0  0
    4.6512    2.1312    0.4436 C   0  0  0  0  0  0  0  0  0  0  0  0
    4.8321    2.8619    1.6962 C   0  0  0  0  0  0  0  0  0  0  0  0
    4.9730    3.4791    2.6693 N   0  0  0  0  0  0  0  0  0  0  0  0
   -1.8977    3.9773    1.2442 H   0  0  0  0  0  0  0  0  0  0  0  0
   -2.2502    2.5080    2.1520 H   0  0  0  0  0  0  0  0  0  0  0  0
   -2.3733    2.5211    0.3784 H   0  0  0  0  0  0  0  0  0  0  0  0
    0.1643    3.0119    1.9868 H   0  0  0  0  0  0  0  0  0  0  0  0
   -0.0949    2.5981   -1.0162 H   0  0  0  0  0  0  0  0  0  0  0  0
    0.1400    4.1395   -0.2124 H   0  0  0  0  0  0  0  0  0  0  0  0
    2.2597    2.9929   -1.1104 H   0  0  0  0  0  0  0  0  0  0  0  0
    2.3200    3.5678    0.5597 H   0  0  0  0  0  0  0  0  0  0  0  0
    0.8605    0.3181   -0.6189 H   0  0  0  0  0  0  0  0  0  0  0  0
    1.5403   -0.4569    0.7920 H   0  0  0  0  0  0  0  0  0  0  0  0
    0.4331    0.9236    2.3363 H   0  0  0  0  0  0  0  0  0  0  0  0
   -2.7149   -0.4338    2.6575 H   0  0  0  0  0  0  0  0  0  0  0  0
   -1.2324   -1.4400    2.7612 H   0  0  0  0  0  0  0  0  0  0  0  0
   -1.2763    0.1954    3.4199 H   0  0  0  0  0  0  0  0  0  0  0  0
   -2.9852   -2.6703    1.8209 H   0  0  0  0  0  0  0  0  0  0  0  0
   -4.5815   -4.1506    0.2190 H   0  0  0  0  0  0  0  0  0  0  0  0
   -4.4800   -3.0923   -2.0774 H   0  0  0  0  0  0  0  0  0  0  0  0
   -1.8496    0.7135   -3.0121 H   0  0  0  0  0  0  0  0  0  0  0  0
    5.5723    1.5993    0.1786 H   0  0  0  0  0  0  0  0  0  0  0  0
    4.4467    2.8084   -0.3898 H   0  0  0  0  0  0  0  0  0  0  0  0
  1  2  1  0
  2  3  1  0
  3  4  1  0
  4  5  1  0
  5  6  1  0
  6  7  1  0
  7  8  1  0
  8  9  1  0
  8 10  1  0
 10 11  2  0
 11 12  1  0
 12 13  2  0
 13 14  1  0
 14 15  1  0
 15 16  2  0
 16 17  1  0
 17 18  2  0
  5 19  1  0
 19 20  2  0
 19 21  1  0
 21 22  1  0
 22 23  3  0
  7  2  1  0
 18 10  1  0
 15 11  1  0
  1 24  1  0
  1 25  1  0
  1 26  1  0
  2 27  1  1
  3 28  1  0
  3 29  1  0
  4 30  1  0
  4 31  1  0
  6 32  1  0
  6 33  1  0
  7 34  1  1
  9 35  1  0
  9 36  1  0
  9 37  1  0
 12 38  1  0
 13 39  1  0
 14 40  1  0
 17 41  1  0
 21 42  1  0
 21 43  1  0
M  END
>  <energy_abs>  (95) 
16.675160554024142

>  <SMILES>  (95) 
C[C@@H]1CCN(C[C@@H]1N(C)c2c3cc[nH]c3ncn2)C(=O)CC#N

>  <cluster_no>  (95) 
95

>  <fda_drugs_id>  (95) 
UJLAWZDWDVHWOW-YPMHNXCESA-N

>  <initial_conformation_id>  (95) 
210

>  <minimize_method>  (95) 
MMFF

$$$$

     RDKit          3D

 43 45  0  0  0  0  0  0  0  0999 V2000
   -2.1567    2.3441    0.6276 C   0  0  0  0  0  0  0  0  0  0  0  0
   -0.7303    2.0945    1.1145 C   0  0  2  0  0  0  0  0  0  0  0  0
    0.2817    2.9287    0.3171 C   0  0  0  0  0  0  0  0  0  0  0  0
    1.6840    2.8307    0.9154 C   0  0  0  0  0  0  0  0  0  0  0  0
    2.1071    1.4533    1.1878 N   0  0  0  0  0  0  0  0  0  0  0  0
    1.1105    0.6054    1.8619 C   0  0  0  0  0  0  0  0  0  0  0  0
   -0.2797    0.6042    1.1595 C   0  0  2  0  0  0  0  0  0  0  0  0
   -0.2261   -0.0131   -0.1971 N   0  0  0  0  0  0  0  0  0  0  0  0
    0.6772   -1.1480   -0.4117 C   0  0  0  0  0  0  0  0  0  0  0  0
   -1.4667   -0.3502   -0.7733 C   0  0  0  0  0  0  0  0  0  0  0  0
   -2.4623   -1.1727   -0.1980 C   0  0  0  0  0  0  0  0  0  0  0  0
   -2.6352   -1.9271    1.0010 C   0  0  0  0  0  0  0  0  0  0  0  0
   -3.8742   -2.5315    0.9515 C   0  0  0  0  0  0  0  0  0  0  0  0
   -4.4567   -2.1843   -0.2388 N   0  0  0  0  0  0  0  0  0  0  0  0
   -3.6104   -1.3803   -0.9509 C   0  0  0  0  0  0  0  0  0  0  0  0
   -3.8805   -0.8997   -2.1718 N   0  0  0  0  0  0  0  0  0  0  0  0
   -2.8608   -0.1631   -2.6376 C   0  0  0  0  0  0  0  0  0  0  0  0
   -1.6961    0.1225   -2.0271 N   0  0  0  0  0  0  0  0  0  0  0  0
    3.4414    1.0563    1.2692 C   0  0  0  0  0  0  0  0  0  0  0  0
    3.7721   -0.0165    1.7841 O   0  0  0  0  0  0  0  0  0  0  0  0
    4.5081    1.9480    0.6734 C   0  0  0  0  0  0  0  0  0  0  0  0
    4.8634    3.0171    1.6028 C   0  0  0  0  0  0  0  0  0  0  0  0
    5.1324    3.9002    2.3067 N   0  0  0  0  0  0  0  0  0  0  0  0
   -2.2526    2.2399   -0.4558 H   0  0  0  0  0  0  0  0  0  0  0  0
   -2.8659    1.6697    1.1182 H   0  0  0  0  0  0  0  0  0  0  0  0
   -2.4601    3.3690    0.8696 H   0  0  0  0  0  0  0  0  0  0  0  0
   -0.7133    2.4606    2.1524 H   0  0  0  0  0  0  0  0  0  0  0  0
    0.3067    2.5911   -0.7264 H   0  0  0  0  0  0  0  0  0  0  0  0
   -0.0241    3.9819    0.2984 H   0  0  0  0  0  0  0  0  0  0  0  0
    1.7179    3.3649    1.8732 H   0  0  0  0  0  0  0  0  0  0  0  0
    2.3856    3.3315    0.2445 H   0  0  0  0  0  0  0  0  0  0  0  0
    1.0095    0.9952    2.8836 H   0  0  0  0  0  0  0  0  0  0  0  0
    1.4798   -0.4204    1.9705 H   0  0  0  0  0  0  0  0  0  0  0  0
   -0.9590    0.0474    1.8126 H   0  0  0  0  0  0  0  0  0  0  0  0
    0.4852   -1.9570    0.3033 H   0  0  0  0  0  0  0  0  0  0  0  0
    1.7210   -0.8367   -0.3132 H   0  0  0  0  0  0  0  0  0  0  0  0
    0.5895   -1.5557   -1.4275 H   0  0  0  0  0  0  0  0  0  0  0  0
   -1.9275   -2.0267    1.8128 H   0  0  0  0  0  0  0  0  0  0  0  0
   -4.3849   -3.1794    1.6518 H   0  0  0  0  0  0  0  0  0  0  0  0
   -5.3624   -2.4786   -0.5738 H   0  0  0  0  0  0  0  0  0  0  0  0
   -2.9885    0.2557   -3.6306 H   0  0  0  0  0  0  0  0  0  0  0  0
    5.3890    1.3280    0.4680 H   0  0  0  0  0  0  0  0  0  0  0  0
    4.1833    2.3340   -0.2974 H   0  0  0  0  0  0  0  0  0  0  0  0
  1  2  1  0
  2  3  1  0
  3  4  1  0
  4  5  1  0
  5  6  1  0
  6  7  1  0
  7  8  1  0
  8  9  1  0
  8 10  1  0
 10 11  2  0
 11 12  1  0
 12 13  2  0
 13 14  1  0
 14 15  1  0
 15 16  2  0
 16 17  1  0
 17 18  2  0
  5 19  1  0
 19 20  2  0
 19 21  1  0
 21 22  1  0
 22 23  3  0
  7  2  1  0
 18 10  1  0
 15 11  1  0
  1 24  1  0
  1 25  1  0
  1 26  1  0
  2 27  1  1
  3 28  1  0
  3 29  1  0
  4 30  1  0
  4 31  1  0
  6 32  1  0
  6 33  1  0
  7 34  1  1
  9 35  1  0
  9 36  1  0
  9 37  1  0
 12 38  1  0
 13 39  1  0
 14 40  1  0
 17 41  1  0
 21 42  1  0
 21 43  1  0
M  END
>  <energy_abs>  (96) 
15.462334609241914

>  <SMILES>  (96) 
C[C@@H]1CCN(C[C@@H]1N(C)c2c3cc[nH]c3ncn2)C(=O)CC#N

>  <cluster_no>  (96) 
96

>  <fda_drugs_id>  (96) 
UJLAWZDWDVHWOW-YPMHNXCESA-N

>  <initial_conformation_id>  (96) 
209

>  <minimize_method>  (96) 
MMFF

$$$$

     RDKit          3D

 43 45  0  0  0  0  0  0  0  0999 V2000
   -0.8216    3.8153    0.0088 C   0  0  0  0  0  0  0  0  0  0  0  0
   -0.7347    3.1984    1.4144 C   0  0  2  0  0  0  0  0  0  0  0  0
    0.4915    3.7674    2.1661 C   0  0  0  0  0  0  0  0  0  0  0  0
    1.6555    2.7872    2.3009 C   0  0  0  0  0  0  0  0  0  0  0  0
    1.7986    1.9683    1.1063 N   0  0  0  0  0  0  0  0  0  0  0  0
    0.6211    1.1793    0.7216 C   0  0  0  0  0  0  0  0  0  0  0  0
   -0.7075    1.6427    1.3928 C   0  0  2  0  0  0  0  0  0  0  0  0
   -1.8985    1.0775    0.6936 N   0  0  0  0  0  0  0  0  0  0  0  0
   -3.1984    1.4484    1.2746 C   0  0  0  0  0  0  0  0  0  0  0  0
   -1.8765   -0.3387    0.6344 C   0  0  0  0  0  0  0  0  0  0  0  0
   -2.4045   -1.0412   -0.4662 C   0  0  0  0  0  0  0  0  0  0  0  0
   -3.0251   -0.7028   -1.7029 C   0  0  0  0  0  0  0  0  0  0  0  0
   -3.3172   -1.8788   -2.3622 C   0  0  0  0  0  0  0  0  0  0  0  0
   -2.8934   -2.9167   -1.5707 N   0  0  0  0  0  0  0  0  0  0  0  0
   -2.3356   -2.4241   -0.4224 C   0  0  0  0  0  0  0  0  0  0  0  0
   -1.8189   -3.1759    0.5590 N   0  0  0  0  0  0  0  0  0  0  0  0
   -1.3422   -2.4128    1.5554 C   0  0  0  0  0  0  0  0  0  0  0  0
   -1.3337   -1.0664    1.6448 N   0  0  0  0  0  0  0  0  0  0  0  0
    3.0659    1.7873    0.5491 C   0  0  0  0  0  0  0  0  0  0  0  0
    4.0543    2.3677    0.9970 O   0  0  0  0  0  0  0  0  0  0  0  0
    3.1506    0.8572   -0.6471 C   0  0  0  0  0  0  0  0  0  0  0  0
    4.5252    0.6833   -1.1251 C   0  0  0  0  0  0  0  0  0  0  0  0
    5.5873    0.4960   -1.5561 N   0  0  0  0  0  0  0  0  0  0  0  0
    0.0713    3.6043   -0.5879 H   0  0  0  0  0  0  0  0  0  0  0  0
   -1.6924    3.4451   -0.5406 H   0  0  0  0  0  0  0  0  0  0  0  0
   -0.9221    4.9043    0.0776 H   0  0  0  0  0  0  0  0  0  0  0  0
   -1.6229    3.5379    1.9614 H   0  0  0  0  0  0  0  0  0  0  0  0
    0.1884    4.0755    3.1748 H   0  0  0  0  0  0  0  0  0  0  0  0
    0.8456    4.6805    1.6711 H   0  0  0  0  0  0  0  0  0  0  0  0
    1.4865    2.1043    3.1427 H   0  0  0  0  0  0  0  0  0  0  0  0
    2.5727    3.3408    2.5264 H   0  0  0  0  0  0  0  0  0  0  0  0
    0.8439    0.1409    0.9893 H   0  0  0  0  0  0  0  0  0  0  0  0
    0.5273    1.2134   -0.3699 H   0  0  0  0  0  0  0  0  0  0  0  0
   -0.7096    1.3078    2.4407 H   0  0  0  0  0  0  0  0  0  0  0  0
   -3.3831    2.5193    1.1468 H   0  0  0  0  0  0  0  0  0  0  0  0
   -4.0337    0.9432    0.7741 H   0  0  0  0  0  0  0  0  0  0  0  0
   -3.2417    1.2169    2.3458 H   0  0  0  0  0  0  0  0  0  0  0  0
   -3.2294    0.2973   -2.0630 H   0  0  0  0  0  0  0  0  0  0  0  0
   -3.7849   -2.0664   -3.3197 H   0  0  0  0  0  0  0  0  0  0  0  0
   -2.9671   -3.9014   -1.7821 H   0  0  0  0  0  0  0  0  0  0  0  0
   -0.9058   -2.9456    2.3952 H   0  0  0  0  0  0  0  0  0  0  0  0
    2.7468   -0.1217   -0.3690 H   0  0  0  0  0  0  0  0  0  0  0  0
    2.5396    1.2737   -1.4550 H   0  0  0  0  0  0  0  0  0  0  0  0
  1  2  1  0
  2  3  1  0
  3  4  1  0
  4  5  1  0
  5  6  1  0
  6  7  1  0
  7  8  1  0
  8  9  1  0
  8 10  1  0
 10 11  2  0
 11 12  1  0
 12 13  2  0
 13 14  1  0
 14 15  1  0
 15 16  2  0
 16 17  1  0
 17 18  2  0
  5 19  1  0
 19 20  2  0
 19 21  1  0
 21 22  1  0
 22 23  3  0
  7  2  1  0
 18 10  1  0
 15 11  1  0
  1 24  1  0
  1 25  1  0
  1 26  1  0
  2 27  1  1
  3 28  1  0
  3 29  1  0
  4 30  1  0
  4 31  1  0
  6 32  1  0
  6 33  1  0
  7 34  1  1
  9 35  1  0
  9 36  1  0
  9 37  1  0
 12 38  1  0
 13 39  1  0
 14 40  1  0
 17 41  1  0
 21 42  1  0
 21 43  1  0
M  END
>  <energy_abs>  (97) 
12.876234250454278

>  <SMILES>  (97) 
C[C@@H]1CCN(C[C@@H]1N(C)c2c3cc[nH]c3ncn2)C(=O)CC#N

>  <cluster_no>  (97) 
97

>  <fda_drugs_id>  (97) 
UJLAWZDWDVHWOW-YPMHNXCESA-N

>  <initial_conformation_id>  (97) 
206

>  <minimize_method>  (97) 
MMFF

$$$$

     RDKit          3D

 43 45  0  0  0  0  0  0  0  0999 V2000
   -0.8633    1.6061    3.4728 C   0  0  0  0  0  0  0  0  0  0  0  0
    0.1639    1.6830    2.3434 C   0  0  2  0  0  0  0  0  0  0  0  0
    0.7486    3.0936    2.1982 C   0  0  0  0  0  0  0  0  0  0  0  0
    1.9632    3.0712    1.2675 C   0  0  0  0  0  0  0  0  0  0  0  0
    1.7826    2.2118    0.0964 N   0  0  0  0  0  0  0  0  0  0  0  0
    0.4035    1.8282   -0.2228 C   0  0  0  0  0  0  0  0  0  0  0  0
   -0.3072    1.1214    0.9653 C   0  0  2  0  0  0  0  0  0  0  0  0
   -1.7868    1.1133    0.8260 N   0  0  0  0  0  0  0  0  0  0  0  0
   -2.4741    2.3764    0.5548 C   0  0  0  0  0  0  0  0  0  0  0  0
   -2.2421    0.0762   -0.0164 C   0  0  0  0  0  0  0  0  0  0  0  0
   -2.1478   -1.2905    0.3278 C   0  0  0  0  0  0  0  0  0  0  0  0
   -1.6834   -2.0489    1.4435 C   0  0  0  0  0  0  0  0  0  0  0  0
   -1.8721   -3.3850    1.1580 C   0  0  0  0  0  0  0  0  0  0  0  0
   -2.4437   -3.4658   -0.0856 N   0  0  0  0  0  0  0  0  0  0  0  0
   -2.6277   -2.2090   -0.5936 C   0  0  0  0  0  0  0  0  0  0  0  0
   -3.1841   -1.9477   -1.7838 N   0  0  0  0  0  0  0  0  0  0  0  0
   -3.2468   -0.6261   -2.0065 C   0  0  0  0  0  0  0  0  0  0  0  0
   -2.8258    0.3757   -1.2087 N   0  0  0  0  0  0  0  0  0  0  0  0
    2.7983    1.8780   -0.7940 C   0  0  0  0  0  0  0  0  0  0  0  0
    2.5873    1.2135   -1.8109 O   0  0  0  0  0  0  0  0  0  0  0  0
    4.2043    2.3494   -0.4933 C   0  0  0  0  0  0  0  0  0  0  0  0
    4.8764    1.4041    0.3958 C   0  0  0  0  0  0  0  0  0  0  0  0
    5.4191    0.6897    1.1324 N   0  0  0  0  0  0  0  0  0  0  0  0
   -1.6920    2.3045    3.3284 H   0  0  0  0  0  0  0  0  0  0  0  0
   -1.2716    0.5948    3.5646 H   0  0  0  0  0  0  0  0  0  0  0  0
   -0.3929    1.8573    4.4301 H   0  0  0  0  0  0  0  0  0  0  0  0
    0.9988    1.0408    2.6643 H   0  0  0  0  0  0  0  0  0  0  0  0
   -0.0094    3.7782    1.8009 H   0  0  0  0  0  0  0  0  0  0  0  0
    1.0517    3.4954    3.1722 H   0  0  0  0  0  0  0  0  0  0  0  0
    2.8380    2.7166    1.8222 H   0  0  0  0  0  0  0  0  0  0  0  0
    2.1833    4.0855    0.9163 H   0  0  0  0  0  0  0  0  0  0  0  0
   -0.0996    2.7590   -0.5055 H   0  0  0  0  0  0  0  0  0  0  0  0
    0.3629    1.1796   -1.1046 H   0  0  0  0  0  0  0  0  0  0  0  0
    0.0617    0.0863    0.9640 H   0  0  0  0  0  0  0  0  0  0  0  0
   -2.3040    2.7466   -0.4625 H   0  0  0  0  0  0  0  0  0  0  0  0
   -3.5546    2.2634    0.7060 H   0  0  0  0  0  0  0  0  0  0  0  0
   -2.1461    3.1565    1.2468 H   0  0  0  0  0  0  0  0  0  0  0  0
   -1.2597   -1.6521    2.3563 H   0  0  0  0  0  0  0  0  0  0  0  0
   -1.6552   -4.2778    1.7294 H   0  0  0  0  0  0  0  0  0  0  0  0
   -2.7086   -4.3104   -0.5712 H   0  0  0  0  0  0  0  0  0  0  0  0
   -3.6931   -0.3233   -2.9489 H   0  0  0  0  0  0  0  0  0  0  0  0
    4.7448    2.4242   -1.4441 H   0  0  0  0  0  0  0  0  0  0  0  0
    4.1949    3.3590   -0.0738 H   0  0  0  0  0  0  0  0  0  0  0  0
  1  2  1  0
  2  3  1  0
  3  4  1  0
  4  5  1  0
  5  6  1  0
  6  7  1  0
  7  8  1  0
  8  9  1  0
  8 10  1  0
 10 11  2  0
 11 12  1  0
 12 13  2  0
 13 14  1  0
 14 15  1  0
 15 16  2  0
 16 17  1  0
 17 18  2  0
  5 19  1  0
 19 20  2  0
 19 21  1  0
 21 22  1  0
 22 23  3  0
  7  2  1  0
 18 10  1  0
 15 11  1  0
  1 24  1  0
  1 25  1  0
  1 26  1  0
  2 27  1  1
  3 28  1  0
  3 29  1  0
  4 30  1  0
  4 31  1  0
  6 32  1  0
  6 33  1  0
  7 34  1  1
  9 35  1  0
  9 36  1  0
  9 37  1  0
 12 38  1  0
 13 39  1  0
 14 40  1  0
 17 41  1  0
 21 42  1  0
 21 43  1  0
M  END
>  <energy_abs>  (98) 
14.831839116069844

>  <SMILES>  (98) 
C[C@@H]1CCN(C[C@@H]1N(C)c2c3cc[nH]c3ncn2)C(=O)CC#N

>  <cluster_no>  (98) 
98

>  <fda_drugs_id>  (98) 
UJLAWZDWDVHWOW-YPMHNXCESA-N

>  <initial_conformation_id>  (98) 
205

>  <minimize_method>  (98) 
MMFF

$$$$

     RDKit          3D

 43 45  0  0  0  0  0  0  0  0999 V2000
   -1.8595    3.0154    0.6036 C   0  0  0  0  0  0  0  0  0  0  0  0
   -0.9318    2.6754    1.7728 C   0  0  2  0  0  0  0  0  0  0  0  0
    0.3029    3.5966    1.7506 C   0  0  0  0  0  0  0  0  0  0  0  0
    1.2494    3.2855    0.5958 C   0  0  0  0  0  0  0  0  0  0  0  0
    1.6482    1.8786    0.5742 N   0  0  0  0  0  0  0  0  0  0  0  0
    0.5567    0.8953    0.6878 C   0  0  0  0  0  0  0  0  0  0  0  0
   -0.4395    1.2034    1.8301 C   0  0  2  0  0  0  0  0  0  0  0  0
   -1.4983    0.1786    2.0296 N   0  0  0  0  0  0  0  0  0  0  0  0
   -2.4136    0.4018    3.1472 C   0  0  0  0  0  0  0  0  0  0  0  0
   -2.1635   -0.3200    0.9060 C   0  0  0  0  0  0  0  0  0  0  0  0
   -1.6970   -1.4404    0.1867 C   0  0  0  0  0  0  0  0  0  0  0  0
   -0.6021   -2.3488    0.2798 C   0  0  0  0  0  0  0  0  0  0  0  0
   -0.7099   -3.2524   -0.7567 C   0  0  0  0  0  0  0  0  0  0  0  0
   -1.8385   -2.9357   -1.4669 N   0  0  0  0  0  0  0  0  0  0  0  0
   -2.4552   -1.8551   -0.8978 C   0  0  0  0  0  0  0  0  0  0  0  0
   -3.6020   -1.3185   -1.3362 N   0  0  0  0  0  0  0  0  0  0  0  0
   -3.9826   -0.2946   -0.5574 C   0  0  0  0  0  0  0  0  0  0  0  0
   -3.3507    0.2145    0.5191 N   0  0  0  0  0  0  0  0  0  0  0  0
    2.8351    1.4302   -0.0269 C   0  0  0  0  0  0  0  0  0  0  0  0
    3.0023    0.2446   -0.3126 O   0  0  0  0  0  0  0  0  0  0  0  0
    3.9058    2.4719   -0.2869 C   0  0  0  0  0  0  0  0  0  0  0  0
    5.1389    1.8896   -0.8246 C   0  0  0  0  0  0  0  0  0  0  0  0
    6.1472    1.5026   -1.2514 N   0  0  0  0  0  0  0  0  0  0  0  0
   -1.9568    4.1004    0.4854 H   0  0  0  0  0  0  0  0  0  0  0  0
   -1.5053    2.6077   -0.3471 H   0  0  0  0  0  0  0  0  0  0  0  0
   -2.8683    2.6400    0.7879 H   0  0  0  0  0  0  0  0  0  0  0  0
   -1.4789    2.9082    2.6952 H   0  0  0  0  0  0  0  0  0  0  0  0
   -0.0052    4.6478    1.7008 H   0  0  0  0  0  0  0  0  0  0  0  0
    0.8475    3.4781    2.6968 H   0  0  0  0  0  0  0  0  0  0  0  0
    0.7832    3.5088   -0.3707 H   0  0  0  0  0  0  0  0  0  0  0  0
    2.1253    3.9328    0.6842 H   0  0  0  0  0  0  0  0  0  0  0  0
    0.0600    0.8662   -0.2887 H   0  0  0  0  0  0  0  0  0  0  0  0
    0.9951   -0.0922    0.8614 H   0  0  0  0  0  0  0  0  0  0  0  0
    0.1663    1.1414    2.7476 H   0  0  0  0  0  0  0  0  0  0  0  0
   -3.1203    1.2167    2.9542 H   0  0  0  0  0  0  0  0  0  0  0  0
   -1.8476    0.6525    4.0513 H   0  0  0  0  0  0  0  0  0  0  0  0
   -2.9831   -0.5078    3.3729 H   0  0  0  0  0  0  0  0  0  0  0  0
    0.1800   -2.3381    1.0280 H   0  0  0  0  0  0  0  0  0  0  0  0
   -0.0864   -4.0886   -1.0443 H   0  0  0  0  0  0  0  0  0  0  0  0
   -2.1917   -3.4208   -2.2788 H   0  0  0  0  0  0  0  0  0  0  0  0
   -4.9178    0.1864   -0.8270 H   0  0  0  0  0  0  0  0  0  0  0  0
    4.1364    2.9803    0.6555 H   0  0  0  0  0  0  0  0  0  0  0  0
    3.5162    3.2044   -1.0018 H   0  0  0  0  0  0  0  0  0  0  0  0
  1  2  1  0
  2  3  1  0
  3  4  1  0
  4  5  1  0
  5  6  1  0
  6  7  1  0
  7  8  1  0
  8  9  1  0
  8 10  1  0
 10 11  2  0
 11 12  1  0
 12 13  2  0
 13 14  1  0
 14 15  1  0
 15 16  2  0
 16 17  1  0
 17 18  2  0
  5 19  1  0
 19 20  2  0
 19 21  1  0
 21 22  1  0
 22 23  3  0
  7  2  1  0
 18 10  1  0
 15 11  1  0
  1 24  1  0
  1 25  1  0
  1 26  1  0
  2 27  1  1
  3 28  1  0
  3 29  1  0
  4 30  1  0
  4 31  1  0
  6 32  1  0
  6 33  1  0
  7 34  1  1
  9 35  1  0
  9 36  1  0
  9 37  1  0
 12 38  1  0
 13 39  1  0
 14 40  1  0
 17 41  1  0
 21 42  1  0
 21 43  1  0
M  END
>  <energy_abs>  (99) 
16.28152401030994

>  <SMILES>  (99) 
C[C@@H]1CCN(C[C@@H]1N(C)c2c3cc[nH]c3ncn2)C(=O)CC#N

>  <cluster_no>  (99) 
99

>  <fda_drugs_id>  (99) 
UJLAWZDWDVHWOW-YPMHNXCESA-N

>  <initial_conformation_id>  (99) 
202

>  <minimize_method>  (99) 
MMFF

$$$$

     RDKit          3D

 43 45  0  0  0  0  0  0  0  0999 V2000
   -1.9390    3.0560    0.5615 C   0  0  0  0  0  0  0  0  0  0  0  0
   -0.9753    1.9527    1.0103 C   0  0  2  0  0  0  0  0  0  0  0  0
    0.0859    2.5398    1.9746 C   0  0  0  0  0  0  0  0  0  0  0  0
    1.1379    3.3791    1.2467 C   0  0  0  0  0  0  0  0  0  0  0  0
    1.7649    2.5759    0.1990 N   0  0  0  0  0  0  0  0  0  0  0  0
    0.8212    2.0773   -0.8101 C   0  0  0  0  0  0  0  0  0  0  0  0
   -0.2632    1.1868   -0.1516 C   0  0  2  0  0  0  0  0  0  0  0  0
   -1.1718    0.5544   -1.1359 N   0  0  0  0  0  0  0  0  0  0  0  0
   -1.6745    1.3170   -2.2738 C   0  0  0  0  0  0  0  0  0  0  0  0
   -2.1111   -0.3408   -0.6023 C   0  0  0  0  0  0  0  0  0  0  0  0
   -1.7647   -1.5079    0.1160 C   0  0  0  0  0  0  0  0  0  0  0  0
   -0.5643   -2.1892    0.4804 C   0  0  0  0  0  0  0  0  0  0  0  0
   -0.9119   -3.3147    1.1982 C   0  0  0  0  0  0  0  0  0  0  0  0
   -2.2797   -3.3536    1.2686 N   0  0  0  0  0  0  0  0  0  0  0  0
   -2.8084   -2.2796    0.6064 C   0  0  0  0  0  0  0  0  0  0  0  0
   -4.1212   -2.0509    0.4697 N   0  0  0  0  0  0  0  0  0  0  0  0
   -4.3444   -0.9449   -0.2552 C   0  0  0  0  0  0  0  0  0  0  0  0
   -3.4393   -0.1022   -0.7892 N   0  0  0  0  0  0  0  0  0  0  0  0
    2.9924    1.9203    0.3357 C   0  0  0  0  0  0  0  0  0  0  0  0
    3.3044    0.9860   -0.4019 O   0  0  0  0  0  0  0  0  0  0  0  0
    3.9147    2.4196    1.4298 C   0  0  0  0  0  0  0  0  0  0  0  0
    5.2539    1.8298    1.3467 C   0  0  0  0  0  0  0  0  0  0  0  0
    6.3356    1.4075    1.3425 N   0  0  0  0  0  0  0  0  0  0  0  0
   -1.4825    3.7443   -0.1549 H   0  0  0  0  0  0  0  0  0  0  0  0
   -2.2794    3.6461    1.4197 H   0  0  0  0  0  0  0  0  0  0  0  0
   -2.8366    2.6298    0.1057 H   0  0  0  0  0  0  0  0  0  0  0  0
   -1.5682    1.2370    1.5948 H   0  0  0  0  0  0  0  0  0  0  0  0
    0.5867    1.7080    2.4874 H   0  0  0  0  0  0  0  0  0  0  0  0
   -0.3959    3.1431    2.7527 H   0  0  0  0  0  0  0  0  0  0  0  0
    1.8720    3.7486    1.9654 H   0  0  0  0  0  0  0  0  0  0  0  0
    0.6836    4.2555    0.7717 H   0  0  0  0  0  0  0  0  0  0  0  0
    0.3806    2.9555   -1.2951 H   0  0  0  0  0  0  0  0  0  0  0  0
    1.3488    1.5161   -1.5893 H   0  0  0  0  0  0  0  0  0  0  0  0
    0.3037    0.3804    0.3299 H   0  0  0  0  0  0  0  0  0  0  0  0
   -2.1671    0.6588   -3.0007 H   0  0  0  0  0  0  0  0  0  0  0  0
   -0.8528    1.7908   -2.8194 H   0  0  0  0  0  0  0  0  0  0  0  0
   -2.3818    2.0977   -1.9826 H   0  0  0  0  0  0  0  0  0  0  0  0
    0.4464   -1.8949    0.2281 H   0  0  0  0  0  0  0  0  0  0  0  0
   -0.3083   -4.0926    1.6468 H   0  0  0  0  0  0  0  0  0  0  0  0
   -2.8380   -4.0676    1.7133 H   0  0  0  0  0  0  0  0  0  0  0  0
   -5.3856   -0.6942   -0.4333 H   0  0  0  0  0  0  0  0  0  0  0  0
    3.4701    2.1700    2.3990 H   0  0  0  0  0  0  0  0  0  0  0  0
    4.0040    3.5083    1.3484 H   0  0  0  0  0  0  0  0  0  0  0  0
  1  2  1  0
  2  3  1  0
  3  4  1  0
  4  5  1  0
  5  6  1  0
  6  7  1  0
  7  8  1  0
  8  9  1  0
  8 10  1  0
 10 11  2  0
 11 12  1  0
 12 13  2  0
 13 14  1  0
 14 15  1  0
 15 16  2  0
 16 17  1  0
 17 18  2  0
  5 19  1  0
 19 20  2  0
 19 21  1  0
 21 22  1  0
 22 23  3  0
  7  2  1  0
 18 10  1  0
 15 11  1  0
  1 24  1  0
  1 25  1  0
  1 26  1  0
  2 27  1  1
  3 28  1  0
  3 29  1  0
  4 30  1  0
  4 31  1  0
  6 32  1  0
  6 33  1  0
  7 34  1  1
  9 35  1  0
  9 36  1  0
  9 37  1  0
 12 38  1  0
 13 39  1  0
 14 40  1  0
 17 41  1  0
 21 42  1  0
 21 43  1  0
M  END
>  <energy_abs>  (100) 
14.093253435078982

>  <SMILES>  (100) 
C[C@@H]1CCN(C[C@@H]1N(C)c2c3cc[nH]c3ncn2)C(=O)CC#N

>  <cluster_no>  (100) 
100

>  <fda_drugs_id>  (100) 
UJLAWZDWDVHWOW-YPMHNXCESA-N

>  <initial_conformation_id>  (100) 
199

>  <minimize_method>  (100) 
MMFF

$$$$

     RDKit          3D

 43 45  0  0  0  0  0  0  0  0999 V2000
   -2.2613    3.4864   -0.4464 C   0  0  0  0  0  0  0  0  0  0  0  0
   -1.2390    3.0197    0.5926 C   0  0  2  0  0  0  0  0  0  0  0  0
   -0.1549    4.1077    0.7505 C   0  0  0  0  0  0  0  0  0  0  0  0
    1.1267    3.5714    1.3773 C   0  0  0  0  0  0  0  0  0  0  0  0
    1.7212    2.5058    0.5702 N   0  0  0  0  0  0  0  0  0  0  0  0
    0.8023    1.7026   -0.2511 C   0  0  0  0  0  0  0  0  0  0  0  0
   -0.6093    1.6105    0.3684 C   0  0  2  0  0  0  0  0  0  0  0  0
   -1.5292    0.6839   -0.3344 N   0  0  0  0  0  0  0  0  0  0  0  0
   -1.4482    0.5993   -1.7955 C   0  0  0  0  0  0  0  0  0  0  0  0
   -1.5094   -0.6256    0.1962 C   0  0  0  0  0  0  0  0  0  0  0  0
   -2.6456   -1.4599    0.1793 C   0  0  0  0  0  0  0  0  0  0  0  0
   -4.0006   -1.3507   -0.2493 C   0  0  0  0  0  0  0  0  0  0  0  0
   -4.6273   -2.5491    0.0221 C   0  0  0  0  0  0  0  0  0  0  0  0
   -3.7040   -3.3776    0.6078 N   0  0  0  0  0  0  0  0  0  0  0  0
   -2.5032   -2.7304    0.7140 C   0  0  0  0  0  0  0  0  0  0  0  0
   -1.3974   -3.2616    1.2523 N   0  0  0  0  0  0  0  0  0  0  0  0
   -0.3798   -2.3867    1.2299 C   0  0  0  0  0  0  0  0  0  0  0  0
   -0.3686   -1.1295    0.7398 N   0  0  0  0  0  0  0  0  0  0  0  0
    3.0842    2.2496    0.7196 C   0  0  0  0  0  0  0  0  0  0  0  0
    3.7640    2.8757    1.5334 O   0  0  0  0  0  0  0  0  0  0  0  0
    3.6782    1.1626   -0.1539 C   0  0  0  0  0  0  0  0  0  0  0  0
    5.1425    1.2132   -0.1865 C   0  0  0  0  0  0  0  0  0  0  0  0
    6.3008    1.2010   -0.2702 N   0  0  0  0  0  0  0  0  0  0  0  0
   -1.8049    3.6120   -1.4328 H   0  0  0  0  0  0  0  0  0  0  0  0
   -3.0992    2.7876   -0.5305 H   0  0  0  0  0  0  0  0  0  0  0  0
   -2.6815    4.4563   -0.1562 H   0  0  0  0  0  0  0  0  0  0  0  0
   -1.7862    2.9611    1.5449 H   0  0  0  0  0  0  0  0  0  0  0  0
    0.0904    4.5351   -0.2309 H   0  0  0  0  0  0  0  0  0  0  0  0
   -0.5494    4.9295    1.3601 H   0  0  0  0  0  0  0  0  0  0  0  0
    1.8487    4.3867    1.4979 H   0  0  0  0  0  0  0  0  0  0  0  0
    0.9272    3.1588    2.3735 H   0  0  0  0  0  0  0  0  0  0  0  0
    1.2153    0.7020   -0.3992 H   0  0  0  0  0  0  0  0  0  0  0  0
    0.7646    2.1855   -1.2348 H   0  0  0  0  0  0  0  0  0  0  0  0
   -0.4613    1.2382    1.3951 H   0  0  0  0  0  0  0  0  0  0  0  0
   -0.5722    0.0264   -2.1242 H   0  0  0  0  0  0  0  0  0  0  0  0
   -2.3453    0.1314   -2.2161 H   0  0  0  0  0  0  0  0  0  0  0  0
   -1.3776    1.5921   -2.2474 H   0  0  0  0  0  0  0  0  0  0  0  0
   -4.4602   -0.4811   -0.7009 H   0  0  0  0  0  0  0  0  0  0  0  0
   -5.6445   -2.8793   -0.1421 H   0  0  0  0  0  0  0  0  0  0  0  0
   -3.8632   -4.3214    0.9297 H   0  0  0  0  0  0  0  0  0  0  0  0
    0.5549   -2.7357    1.6588 H   0  0  0  0  0  0  0  0  0  0  0  0
    3.3042    1.2750   -1.1771 H   0  0  0  0  0  0  0  0  0  0  0  0
    3.3530    0.1924    0.2366 H   0  0  0  0  0  0  0  0  0  0  0  0
  1  2  1  0
  2  3  1  0
  3  4  1  0
  4  5  1  0
  5  6  1  0
  6  7  1  0
  7  8  1  0
  8  9  1  0
  8 10  1  0
 10 11  2  0
 11 12  1  0
 12 13  2  0
 13 14  1  0
 14 15  1  0
 15 16  2  0
 16 17  1  0
 17 18  2  0
  5 19  1  0
 19 20  2  0
 19 21  1  0
 21 22  1  0
 22 23  3  0
  7  2  1  0
 18 10  1  0
 15 11  1  0
  1 24  1  0
  1 25  1  0
  1 26  1  0
  2 27  1  1
  3 28  1  0
  3 29  1  0
  4 30  1  0
  4 31  1  0
  6 32  1  0
  6 33  1  0
  7 34  1  1
  9 35  1  0
  9 36  1  0
  9 37  1  0
 12 38  1  0
 13 39  1  0
 14 40  1  0
 17 41  1  0
 21 42  1  0
 21 43  1  0
M  END
>  <energy_abs>  (101) 
15.349335303297504

>  <SMILES>  (101) 
C[C@@H]1CCN(C[C@@H]1N(C)c2c3cc[nH]c3ncn2)C(=O)CC#N

>  <cluster_no>  (101) 
101

>  <fda_drugs_id>  (101) 
UJLAWZDWDVHWOW-YPMHNXCESA-N

>  <initial_conformation_id>  (101) 
197

>  <minimize_method>  (101) 
MMFF

$$$$

     RDKit          3D

 43 45  0  0  0  0  0  0  0  0999 V2000
   -1.8776    2.7982   -1.8738 C   0  0  0  0  0  0  0  0  0  0  0  0
   -1.0221    2.5348   -0.6318 C   0  0  2  0  0  0  0  0  0  0  0  0
    0.0561    3.6337   -0.5253 C   0  0  0  0  0  0  0  0  0  0  0  0
    1.2482    3.2068    0.3233 C   0  0  0  0  0  0  0  0  0  0  0  0
    1.9140    2.0324   -0.2460 N   0  0  0  0  0  0  0  0  0  0  0  0
    1.0655    1.0834   -0.9846 C   0  0  0  0  0  0  0  0  0  0  0  0
   -0.4079    1.1078   -0.5175 C   0  0  2  0  0  0  0  0  0  0  0  0
   -1.2690    0.0769   -1.1505 N   0  0  0  0  0  0  0  0  0  0  0  0
   -0.9440   -0.3562   -2.5118 C   0  0  0  0  0  0  0  0  0  0  0  0
   -1.4827   -1.0257   -0.2956 C   0  0  0  0  0  0  0  0  0  0  0  0
   -2.3103   -0.9514    0.8451 C   0  0  0  0  0  0  0  0  0  0  0  0
   -3.1335    0.0347    1.4641 C   0  0  0  0  0  0  0  0  0  0  0  0
   -3.7016   -0.5305    2.5865 C   0  0  0  0  0  0  0  0  0  0  0  0
   -3.2600   -1.8265    2.6664 N   0  0  0  0  0  0  0  0  0  0  0  0
   -2.4283   -2.0981    1.6148 C   0  0  0  0  0  0  0  0  0  0  0  0
   -1.8462   -3.2846    1.3949 N   0  0  0  0  0  0  0  0  0  0  0  0
   -1.1004   -3.2563    0.2792 C   0  0  0  0  0  0  0  0  0  0  0  0
   -0.8960   -2.2229   -0.5618 N   0  0  0  0  0  0  0  0  0  0  0  0
    3.2664    1.7339   -0.1173 C   0  0  0  0  0  0  0  0  0  0  0  0
    3.7685    0.7545   -0.6757 O   0  0  0  0  0  0  0  0  0  0  0  0
    4.1490    2.6513    0.6996 C   0  0  0  0  0  0  0  0  0  0  0  0
    3.8502    2.5358    2.1252 C   0  0  0  0  0  0  0  0  0  0  0  0
    3.6039    2.4863    3.2588 N   0  0  0  0  0  0  0  0  0  0  0  0
   -2.7273    2.1113   -1.9305 H   0  0  0  0  0  0  0  0  0  0  0  0
   -1.2887    2.7067   -2.7917 H   0  0  0  0  0  0  0  0  0  0  0  0
   -2.2877    3.8144   -1.8461 H   0  0  0  0  0  0  0  0  0  0  0  0
   -1.6935    2.6540    0.2300 H   0  0  0  0  0  0  0  0  0  0  0  0
   -0.3920    4.5416   -0.1037 H   0  0  0  0  0  0  0  0  0  0  0  0
    0.4204    3.9002   -1.5269 H   0  0  0  0  0  0  0  0  0  0  0  0
    0.9249    2.9452    1.3372 H   0  0  0  0  0  0  0  0  0  0  0  0
    1.9500    4.0401    0.4020 H   0  0  0  0  0  0  0  0  0  0  0  0
    1.1451    1.3567   -2.0437 H   0  0  0  0  0  0  0  0  0  0  0  0
    1.4740    0.0719   -0.8760 H   0  0  0  0  0  0  0  0  0  0  0  0
   -0.3564    0.9169    0.5660 H   0  0  0  0  0  0  0  0  0  0  0  0
    0.0035   -0.9048   -2.5677 H   0  0  0  0  0  0  0  0  0  0  0  0
   -0.8663    0.5044   -3.1825 H   0  0  0  0  0  0  0  0  0  0  0  0
   -1.7416   -0.9923   -2.9149 H   0  0  0  0  0  0  0  0  0  0  0  0
   -3.2968    1.0444    1.1134 H   0  0  0  0  0  0  0  0  0  0  0  0
   -4.3825   -0.1291    3.3250 H   0  0  0  0  0  0  0  0  0  0  0  0
   -3.5052   -2.5026    3.3753 H   0  0  0  0  0  0  0  0  0  0  0  0
   -0.5961   -4.1822    0.0204 H   0  0  0  0  0  0  0  0  0  0  0  0
    4.0542    3.6799    0.3405 H   0  0  0  0  0  0  0  0  0  0  0  0
    5.1923    2.3646    0.5198 H   0  0  0  0  0  0  0  0  0  0  0  0
  1  2  1  0
  2  3  1  0
  3  4  1  0
  4  5  1  0
  5  6  1  0
  6  7  1  0
  7  8  1  0
  8  9  1  0
  8 10  1  0
 10 11  2  0
 11 12  1  0
 12 13  2  0
 13 14  1  0
 14 15  1  0
 15 16  2  0
 16 17  1  0
 17 18  2  0
  5 19  1  0
 19 20  2  0
 19 21  1  0
 21 22  1  0
 22 23  3  0
  7  2  1  0
 18 10  1  0
 15 11  1  0
  1 24  1  0
  1 25  1  0
  1 26  1  0
  2 27  1  1
  3 28  1  0
  3 29  1  0
  4 30  1  0
  4 31  1  0
  6 32  1  0
  6 33  1  0
  7 34  1  1
  9 35  1  0
  9 36  1  0
  9 37  1  0
 12 38  1  0
 13 39  1  0
 14 40  1  0
 17 41  1  0
 21 42  1  0
 21 43  1  0
M  END
>  <energy_abs>  (102) 
16.040177383595715

>  <SMILES>  (102) 
C[C@@H]1CCN(C[C@@H]1N(C)c2c3cc[nH]c3ncn2)C(=O)CC#N

>  <cluster_no>  (102) 
102

>  <fda_drugs_id>  (102) 
UJLAWZDWDVHWOW-YPMHNXCESA-N

>  <initial_conformation_id>  (102) 
195

>  <minimize_method>  (102) 
MMFF

$$$$

     RDKit          3D

 43 45  0  0  0  0  0  0  0  0999 V2000
   -1.5183    2.4188   -0.1474 C   0  0  0  0  0  0  0  0  0  0  0  0
   -0.0412    2.0325   -0.0791 C   0  0  2  0  0  0  0  0  0  0  0  0
    0.7760    2.7147   -1.1934 C   0  0  0  0  0  0  0  0  0  0  0  0
    2.2236    2.2184   -1.2870 C   0  0  0  0  0  0  0  0  0  0  0  0
    2.5774    1.4005   -0.1314 N   0  0  0  0  0  0  0  0  0  0  0  0
    1.7585    0.1914   -0.0029 C   0  0  0  0  0  0  0  0  0  0  0  0
    0.2354    0.5084    0.0762 C   0  0  2  0  0  0  0  0  0  0  0  0
   -0.5058   -0.3731   -0.8569 N   0  0  0  0  0  0  0  0  0  0  0  0
   -0.4498   -0.1352   -2.2938 C   0  0  0  0  0  0  0  0  0  0  0  0
   -1.7411   -0.8645   -0.4124 C   0  0  0  0  0  0  0  0  0  0  0  0
   -1.9181   -1.5899    0.7892 C   0  0  0  0  0  0  0  0  0  0  0  0
   -1.0870   -2.0846    1.8402 C   0  0  0  0  0  0  0  0  0  0  0  0
   -1.8905   -2.7404    2.7495 C   0  0  0  0  0  0  0  0  0  0  0  0
   -3.1774   -2.6777    2.2836 N   0  0  0  0  0  0  0  0  0  0  0  0
   -3.2070   -2.0048    1.0930 C   0  0  0  0  0  0  0  0  0  0  0  0
   -4.3160   -1.8071    0.3684 N   0  0  0  0  0  0  0  0  0  0  0  0
   -4.0386   -1.1472   -0.7653 C   0  0  0  0  0  0  0  0  0  0  0  0
   -2.8457   -0.6886   -1.1911 N   0  0  0  0  0  0  0  0  0  0  0  0
    3.2649    1.8560    0.9894 C   0  0  0  0  0  0  0  0  0  0  0  0
    3.2466    1.2393    2.0577 O   0  0  0  0  0  0  0  0  0  0  0  0
    4.0797    3.1244    0.8775 C   0  0  0  0  0  0  0  0  0  0  0  0
    3.2398    4.2935    1.1240 C   0  0  0  0  0  0  0  0  0  0  0  0
    2.5768    5.2337    1.2782 N   0  0  0  0  0  0  0  0  0  0  0  0
   -1.6308    3.5051   -0.0582 H   0  0  0  0  0  0  0  0  0  0  0  0
   -2.0796    1.9626    0.6745 H   0  0  0  0  0  0  0  0  0  0  0  0
   -1.9821    2.1232   -1.0915 H   0  0  0  0  0  0  0  0  0  0  0  0
    0.3205    2.4827    0.8592 H   0  0  0  0  0  0  0  0  0  0  0  0
    0.7852    3.7960   -1.0029 H   0  0  0  0  0  0  0  0  0  0  0  0
    0.2928    2.5997   -2.1702 H   0  0  0  0  0  0  0  0  0  0  0  0
    2.3481    1.5916   -2.1777 H   0  0  0  0  0  0  0  0  0  0  0  0
    2.9001    3.0660   -1.4138 H   0  0  0  0  0  0  0  0  0  0  0  0
    1.9958   -0.4429   -0.8653 H   0  0  0  0  0  0  0  0  0  0  0  0
    2.0543   -0.3896    0.8781 H   0  0  0  0  0  0  0  0  0  0  0  0
   -0.0563    0.2761    1.1072 H   0  0  0  0  0  0  0  0  0  0  0  0
    0.5722    0.0823   -2.6156 H   0  0  0  0  0  0  0  0  0  0  0  0
   -0.7550   -1.0312   -2.8484 H   0  0  0  0  0  0  0  0  0  0  0  0
   -1.0871    0.6974   -2.6067 H   0  0  0  0  0  0  0  0  0  0  0  0
   -0.0133   -1.9766    1.9185 H   0  0  0  0  0  0  0  0  0  0  0  0
   -1.6575   -3.2488    3.6756 H   0  0  0  0  0  0  0  0  0  0  0  0
   -3.9949   -3.0767    2.7215 H   0  0  0  0  0  0  0  0  0  0  0  0
   -4.8800   -0.9577   -1.4245 H   0  0  0  0  0  0  0  0  0  0  0  0
    4.5792    3.1729   -0.0943 H   0  0  0  0  0  0  0  0  0  0  0  0
    4.8823    3.0745    1.6229 H   0  0  0  0  0  0  0  0  0  0  0  0
  1  2  1  0
  2  3  1  0
  3  4  1  0
  4  5  1  0
  5  6  1  0
  6  7  1  0
  7  8  1  0
  8  9  1  0
  8 10  1  0
 10 11  2  0
 11 12  1  0
 12 13  2  0
 13 14  1  0
 14 15  1  0
 15 16  2  0
 16 17  1  0
 17 18  2  0
  5 19  1  0
 19 20  2  0
 19 21  1  0
 21 22  1  0
 22 23  3  0
  7  2  1  0
 18 10  1  0
 15 11  1  0
  1 24  1  0
  1 25  1  0
  1 26  1  0
  2 27  1  1
  3 28  1  0
  3 29  1  0
  4 30  1  0
  4 31  1  0
  6 32  1  0
  6 33  1  0
  7 34  1  1
  9 35  1  0
  9 36  1  0
  9 37  1  0
 12 38  1  0
 13 39  1  0
 14 40  1  0
 17 41  1  0
 21 42  1  0
 21 43  1  0
M  END
>  <energy_abs>  (103) 
18.15980188934884

>  <SMILES>  (103) 
C[C@@H]1CCN(C[C@@H]1N(C)c2c3cc[nH]c3ncn2)C(=O)CC#N

>  <cluster_no>  (103) 
103

>  <fda_drugs_id>  (103) 
UJLAWZDWDVHWOW-YPMHNXCESA-N

>  <initial_conformation_id>  (103) 
193

>  <minimize_method>  (103) 
MMFF

$$$$

     RDKit          3D

 43 45  0  0  0  0  0  0  0  0999 V2000
   -1.7040    1.0198   -2.2636 C   0  0  0  0  0  0  0  0  0  0  0  0
   -1.2284    1.9161   -1.1209 C   0  0  2  0  0  0  0  0  0  0  0  0
   -0.3424    3.0654   -1.6403 C   0  0  0  0  0  0  0  0  0  0  0  0
    1.1415    2.8503   -1.4014 C   0  0  0  0  0  0  0  0  0  0  0  0
    1.4566    2.6157    0.0057 N   0  0  0  0  0  0  0  0  0  0  0  0
    0.3754    2.1200    0.8700 C   0  0  0  0  0  0  0  0  0  0  0  0
   -0.6653    1.2199    0.1522 C   0  0  2  0  0  0  0  0  0  0  0  0
   -0.1576   -0.1687    0.0197 N   0  0  0  0  0  0  0  0  0  0  0  0
    1.0362   -0.4669   -0.7634 C   0  0  0  0  0  0  0  0  0  0  0  0
   -1.1138   -1.1946   -0.0093 C   0  0  0  0  0  0  0  0  0  0  0  0
   -2.0658   -1.4216    1.0121 C   0  0  0  0  0  0  0  0  0  0  0  0
   -2.3762   -0.8679    2.2917 C   0  0  0  0  0  0  0  0  0  0  0  0
   -3.4484   -1.5623    2.8115 C   0  0  0  0  0  0  0  0  0  0  0  0
   -3.7912   -2.5311    1.9051 N   0  0  0  0  0  0  0  0  0  0  0  0
   -2.9532   -2.4722    0.8256 C   0  0  0  0  0  0  0  0  0  0  0  0
   -3.0083   -3.3145   -0.2141 N   0  0  0  0  0  0  0  0  0  0  0  0
   -2.0429   -3.0455   -1.1042 C   0  0  0  0  0  0  0  0  0  0  0  0
   -1.1184   -2.0672   -1.0562 N   0  0  0  0  0  0  0  0  0  0  0  0
    2.7735    2.8247    0.4192 C   0  0  0  0  0  0  0  0  0  0  0  0
    3.6517    3.1277   -0.3891 O   0  0  0  0  0  0  0  0  0  0  0  0
    3.0690    2.6435    1.8945 C   0  0  0  0  0  0  0  0  0  0  0  0
    4.3712    3.1990    2.2736 C   0  0  0  0  0  0  0  0  0  0  0  0
    5.3830    3.6287    2.6478 N   0  0  0  0  0  0  0  0  0  0  0  0
   -0.8814    0.4948   -2.7525 H   0  0  0  0  0  0  0  0  0  0  0  0
   -2.2013    1.6204   -3.0345 H   0  0  0  0  0  0  0  0  0  0  0  0
   -2.4424    0.2923   -1.9159 H   0  0  0  0  0  0  0  0  0  0  0  0
   -2.1483    2.4212   -0.7851 H   0  0  0  0  0  0  0  0  0  0  0  0
   -0.5226    3.2518   -2.7055 H   0  0  0  0  0  0  0  0  0  0  0  0
   -0.6391    3.9872   -1.1205 H   0  0  0  0  0  0  0  0  0  0  0  0
    1.6962    3.7295   -1.7499 H   0  0  0  0  0  0  0  0  0  0  0  0
    1.5083    1.9968   -1.9802 H   0  0  0  0  0  0  0  0  0  0  0  0
    0.7889    1.5829    1.7287 H   0  0  0  0  0  0  0  0  0  0  0  0
   -0.1276    3.0132    1.2615 H   0  0  0  0  0  0  0  0  0  0  0  0
   -1.5071    1.1908    0.8531 H   0  0  0  0  0  0  0  0  0  0  0  0
    0.8895   -0.3027   -1.8335 H   0  0  0  0  0  0  0  0  0  0  0  0
    1.3598   -1.5057   -0.6178 H   0  0  0  0  0  0  0  0  0  0  0  0
    1.8837    0.1357   -0.4305 H   0  0  0  0  0  0  0  0  0  0  0  0
   -1.8604   -0.0558    2.7854 H   0  0  0  0  0  0  0  0  0  0  0  0
   -3.9843   -1.4611    3.7461 H   0  0  0  0  0  0  0  0  0  0  0  0
   -4.5279   -3.2146    2.0048 H   0  0  0  0  0  0  0  0  0  0  0  0
   -1.9996   -3.6948   -1.9731 H   0  0  0  0  0  0  0  0  0  0  0  0
    2.2931    3.1446    2.4829 H   0  0  0  0  0  0  0  0  0  0  0  0
    3.0473    1.5719    2.1198 H   0  0  0  0  0  0  0  0  0  0  0  0
  1  2  1  0
  2  3  1  0
  3  4  1  0
  4  5  1  0
  5  6  1  0
  6  7  1  0
  7  8  1  0
  8  9  1  0
  8 10  1  0
 10 11  2  0
 11 12  1  0
 12 13  2  0
 13 14  1  0
 14 15  1  0
 15 16  2  0
 16 17  1  0
 17 18  2  0
  5 19  1  0
 19 20  2  0
 19 21  1  0
 21 22  1  0
 22 23  3  0
  7  2  1  0
 18 10  1  0
 15 11  1  0
  1 24  1  0
  1 25  1  0
  1 26  1  0
  2 27  1  1
  3 28  1  0
  3 29  1  0
  4 30  1  0
  4 31  1  0
  6 32  1  0
  6 33  1  0
  7 34  1  1
  9 35  1  0
  9 36  1  0
  9 37  1  0
 12 38  1  0
 13 39  1  0
 14 40  1  0
 17 41  1  0
 21 42  1  0
 21 43  1  0
M  END
>  <energy_abs>  (104) 
19.801323279989006

>  <SMILES>  (104) 
C[C@@H]1CCN(C[C@@H]1N(C)c2c3cc[nH]c3ncn2)C(=O)CC#N

>  <cluster_no>  (104) 
104

>  <fda_drugs_id>  (104) 
UJLAWZDWDVHWOW-YPMHNXCESA-N

>  <initial_conformation_id>  (104) 
191

>  <minimize_method>  (104) 
MMFF

$$$$

     RDKit          3D

 43 45  0  0  0  0  0  0  0  0999 V2000
    0.5132   -1.6014   -1.7343 C   0  0  0  0  0  0  0  0  0  0  0  0
    1.0252   -0.2407   -1.2660 C   0  0  2  0  0  0  0  0  0  0  0  0
    1.9840   -0.3888   -0.0711 C   0  0  0  0  0  0  0  0  0  0  0  0
    2.0683    0.8455    0.8302 C   0  0  0  0  0  0  0  0  0  0  0  0
    1.8655    2.1073    0.1183 N   0  0  0  0  0  0  0  0  0  0  0  0
    0.7570    2.1680   -0.8481 C   0  0  0  0  0  0  0  0  0  0  0  0
   -0.0526    0.8468   -1.0071 C   0  0  2  0  0  0  0  0  0  0  0  0
   -0.8854    0.5266    0.1974 N   0  0  0  0  0  0  0  0  0  0  0  0
   -1.5835    1.6634    0.8189 C   0  0  0  0  0  0  0  0  0  0  0  0
   -1.8881   -0.4396   -0.0713 C   0  0  0  0  0  0  0  0  0  0  0  0
   -2.2649   -1.3967    0.8922 C   0  0  0  0  0  0  0  0  0  0  0  0
   -1.8707   -1.7327    2.2194 C   0  0  0  0  0  0  0  0  0  0  0  0
   -2.6388   -2.8032    2.6280 C   0  0  0  0  0  0  0  0  0  0  0  0
   -3.4811   -3.1293    1.5948 N   0  0  0  0  0  0  0  0  0  0  0  0
   -3.2643   -2.2882    0.5377 C   0  0  0  0  0  0  0  0  0  0  0  0
   -3.9221   -2.3425   -0.6283 N   0  0  0  0  0  0  0  0  0  0  0  0
   -3.4899   -1.3909   -1.4722 C   0  0  0  0  0  0  0  0  0  0  0  0
   -2.5335   -0.4625   -1.2659 N   0  0  0  0  0  0  0  0  0  0  0  0
    2.5041    3.3109    0.4205 C   0  0  0  0  0  0  0  0  0  0  0  0
    2.2191    4.3461   -0.1832 O   0  0  0  0  0  0  0  0  0  0  0  0
    3.5615    3.2771    1.5048 C   0  0  0  0  0  0  0  0  0  0  0  0
    4.0824    4.6099    1.8217 C   0  0  0  0  0  0  0  0  0  0  0  0
    4.5366    5.6333    2.1298 N   0  0  0  0  0  0  0  0  0  0  0  0
   -0.1858   -1.4912   -2.5692 H   0  0  0  0  0  0  0  0  0  0  0  0
    1.3494   -2.2167   -2.0858 H   0  0  0  0  0  0  0  0  0  0  0  0
    0.0231   -2.1610   -0.9336 H   0  0  0  0  0  0  0  0  0  0  0  0
    1.6312    0.1302   -2.1072 H   0  0  0  0  0  0  0  0  0  0  0  0
    2.9844   -0.6110   -0.4652 H   0  0  0  0  0  0  0  0  0  0  0  0
    1.7096   -1.2499    0.5510 H   0  0  0  0  0  0  0  0  0  0  0  0
    3.0337    0.8345    1.3429 H   0  0  0  0  0  0  0  0  0  0  0  0
    1.3087    0.7985    1.6188 H   0  0  0  0  0  0  0  0  0  0  0  0
    0.1073    3.0134   -0.5965 H   0  0  0  0  0  0  0  0  0  0  0  0
    1.2117    2.4260   -1.8145 H   0  0  0  0  0  0  0  0  0  0  0  0
   -0.6845    0.9779   -1.8950 H   0  0  0  0  0  0  0  0  0  0  0  0
   -0.8621    2.3406    1.2876 H   0  0  0  0  0  0  0  0  0  0  0  0
   -2.2532    1.3470    1.6286 H   0  0  0  0  0  0  0  0  0  0  0  0
   -2.1696    2.2284    0.0839 H   0  0  0  0  0  0  0  0  0  0  0  0
   -1.1044   -1.2386    2.8020 H   0  0  0  0  0  0  0  0  0  0  0  0
   -2.6581   -3.3591    3.5560 H   0  0  0  0  0  0  0  0  0  0  0  0
   -4.1638   -3.8733    1.5886 H   0  0  0  0  0  0  0  0  0  0  0  0
   -3.9716   -1.3641   -2.4450 H   0  0  0  0  0  0  0  0  0  0  0  0
    4.3849    2.6390    1.1666 H   0  0  0  0  0  0  0  0  0  0  0  0
    3.1255    2.8453    2.4120 H   0  0  0  0  0  0  0  0  0  0  0  0
  1  2  1  0
  2  3  1  0
  3  4  1  0
  4  5  1  0
  5  6  1  0
  6  7  1  0
  7  8  1  0
  8  9  1  0
  8 10  1  0
 10 11  2  0
 11 12  1  0
 12 13  2  0
 13 14  1  0
 14 15  1  0
 15 16  2  0
 16 17  1  0
 17 18  2  0
  5 19  1  0
 19 20  2  0
 19 21  1  0
 21 22  1  0
 22 23  3  0
  7  2  1  0
 18 10  1  0
 15 11  1  0
  1 24  1  0
  1 25  1  0
  1 26  1  0
  2 27  1  6
  3 28  1  0
  3 29  1  0
  4 30  1  0
  4 31  1  0
  6 32  1  0
  6 33  1  0
  7 34  1  6
  9 35  1  0
  9 36  1  0
  9 37  1  0
 12 38  1  0
 13 39  1  0
 14 40  1  0
 17 41  1  0
 21 42  1  0
 21 43  1  0
M  END
>  <energy_abs>  (105) 
13.921570029571152

>  <SMILES>  (105) 
C[C@@H]1CCN(C[C@@H]1N(C)c2c3cc[nH]c3ncn2)C(=O)CC#N

>  <cluster_no>  (105) 
105

>  <fda_drugs_id>  (105) 
UJLAWZDWDVHWOW-YPMHNXCESA-N

>  <initial_conformation_id>  (105) 
189

>  <minimize_method>  (105) 
MMFF

$$$$

     RDKit          3D

 43 45  0  0  0  0  0  0  0  0999 V2000
    2.1265   -2.1982   -1.3953 C   0  0  0  0  0  0  0  0  0  0  0  0
    1.7399   -0.7308   -1.5919 C   0  0  2  0  0  0  0  0  0  0  0  0
    3.0132    0.0863   -1.9023 C   0  0  0  0  0  0  0  0  0  0  0  0
    2.8049    1.5843   -1.7101 C   0  0  0  0  0  0  0  0  0  0  0  0
    2.4093    1.9182   -0.3416 N   0  0  0  0  0  0  0  0  0  0  0  0
    1.7668    0.8470    0.4366 C   0  0  0  0  0  0  0  0  0  0  0  0
    0.8988   -0.0680   -0.4569 C   0  0  2  0  0  0  0  0  0  0  0  0
    0.0646   -1.0438    0.2872 N   0  0  0  0  0  0  0  0  0  0  0  0
    0.6353   -1.6701    1.4835 C   0  0  0  0  0  0  0  0  0  0  0  0
   -1.2046   -0.5153    0.6279 C   0  0  0  0  0  0  0  0  0  0  0  0
   -2.3530   -1.3218    0.7500 C   0  0  0  0  0  0  0  0  0  0  0  0
   -2.6697   -2.7013    0.5837 C   0  0  0  0  0  0  0  0  0  0  0  0
   -4.0128   -2.8616    0.8546 C   0  0  0  0  0  0  0  0  0  0  0  0
   -4.5229   -1.6279    1.1711 N   0  0  0  0  0  0  0  0  0  0  0  0
   -3.5319   -0.6868    1.1076 C   0  0  0  0  0  0  0  0  0  0  0  0
   -3.7068    0.6189    1.3529 N   0  0  0  0  0  0  0  0  0  0  0  0
   -2.5594    1.2999    1.2013 C   0  0  0  0  0  0  0  0  0  0  0  0
   -1.3460    0.8153    0.8650 N   0  0  0  0  0  0  0  0  0  0  0  0
    2.4815    3.2527    0.0418 C   0  0  0  0  0  0  0  0  0  0  0  0
    2.8845    4.1242   -0.7341 O   0  0  0  0  0  0  0  0  0  0  0  0
    2.0855    3.6348    1.4501 C   0  0  0  0  0  0  0  0  0  0  0  0
    0.6780    4.0285    1.5003 C   0  0  0  0  0  0  0  0  0  0  0  0
   -0.4394    4.3340    1.5847 N   0  0  0  0  0  0  0  0  0  0  0  0
    2.6448   -2.5756   -2.2844 H   0  0  0  0  0  0  0  0  0  0  0  0
    2.8044   -2.3271   -0.5465 H   0  0  0  0  0  0  0  0  0  0  0  0
    1.2464   -2.8311   -1.2458 H   0  0  0  0  0  0  0  0  0  0  0  0
    1.1083   -0.7073   -2.4922 H   0  0  0  0  0  0  0  0  0  0  0  0
    3.3336   -0.1131   -2.9319 H   0  0  0  0  0  0  0  0  0  0  0  0
    3.8340   -0.2400   -1.2498 H   0  0  0  0  0  0  0  0  0  0  0  0
    2.0184    1.9512   -2.3808 H   0  0  0  0  0  0  0  0  0  0  0  0
    3.7259    2.1241   -1.9583 H   0  0  0  0  0  0  0  0  0  0  0  0
    1.1678    1.2700    1.2437 H   0  0  0  0  0  0  0  0  0  0  0  0
    2.5757    0.2747    0.9065 H   0  0  0  0  0  0  0  0  0  0  0  0
    0.2252    0.6057   -1.0117 H   0  0  0  0  0  0  0  0  0  0  0  0
    1.6627   -1.9989    1.3082 H   0  0  0  0  0  0  0  0  0  0  0  0
    0.0684   -2.5631    1.7696 H   0  0  0  0  0  0  0  0  0  0  0  0
    0.6548   -0.9829    2.3387 H   0  0  0  0  0  0  0  0  0  0  0  0
   -1.9824   -3.4838    0.2898 H   0  0  0  0  0  0  0  0  0  0  0  0
   -4.6471   -3.7379    0.8422 H   0  0  0  0  0  0  0  0  0  0  0  0
   -5.4811   -1.4164    1.4090 H   0  0  0  0  0  0  0  0  0  0  0  0
   -2.6113    2.3719    1.3724 H   0  0  0  0  0  0  0  0  0  0  0  0
    2.7198    4.4763    1.7538 H   0  0  0  0  0  0  0  0  0  0  0  0
    2.3121    2.8297    2.1545 H   0  0  0  0  0  0  0  0  0  0  0  0
  1  2  1  0
  2  3  1  0
  3  4  1  0
  4  5  1  0
  5  6  1  0
  6  7  1  0
  7  8  1  0
  8  9  1  0
  8 10  1  0
 10 11  2  0
 11 12  1  0
 12 13  2  0
 13 14  1  0
 14 15  1  0
 15 16  2  0
 16 17  1  0
 17 18  2  0
  5 19  1  0
 19 20  2  0
 19 21  1  0
 21 22  1  0
 22 23  3  0
  7  2  1  0
 18 10  1  0
 15 11  1  0
  1 24  1  0
  1 25  1  0
  1 26  1  0
  2 27  1  6
  3 28  1  0
  3 29  1  0
  4 30  1  0
  4 31  1  0
  6 32  1  0
  6 33  1  0
  7 34  1  6
  9 35  1  0
  9 36  1  0
  9 37  1  0
 12 38  1  0
 13 39  1  0
 14 40  1  0
 17 41  1  0
 21 42  1  0
 21 43  1  0
M  END
>  <energy_abs>  (106) 
14.353821743436168

>  <SMILES>  (106) 
C[C@@H]1CCN(C[C@@H]1N(C)c2c3cc[nH]c3ncn2)C(=O)CC#N

>  <cluster_no>  (106) 
106

>  <fda_drugs_id>  (106) 
UJLAWZDWDVHWOW-YPMHNXCESA-N

>  <initial_conformation_id>  (106) 
188

>  <minimize_method>  (106) 
MMFF

$$$$

     RDKit          3D

 43 45  0  0  0  0  0  0  0  0999 V2000
   -0.9113    1.2149   -2.0919 C   0  0  0  0  0  0  0  0  0  0  0  0
    0.2697    1.3234   -1.1279 C   0  0  2  0  0  0  0  0  0  0  0  0
    1.6177    1.2831   -1.8762 C   0  0  0  0  0  0  0  0  0  0  0  0
    2.8327    1.1710   -0.9493 C   0  0  0  0  0  0  0  0  0  0  0  0
    2.4570    1.4343    0.4340 N   0  0  0  0  0  0  0  0  0  0  0  0
    1.4939    0.4682    0.9717 C   0  0  0  0  0  0  0  0  0  0  0  0
    0.1947    0.3884    0.1156 C   0  0  2  0  0  0  0  0  0  0  0  0
   -0.1301   -1.0281   -0.1733 N   0  0  0  0  0  0  0  0  0  0  0  0
    0.6512   -1.7812   -1.1457 C   0  0  0  0  0  0  0  0  0  0  0  0
   -1.4860   -1.3821   -0.1411 C   0  0  0  0  0  0  0  0  0  0  0  0
   -2.3319   -1.1711    0.9728 C   0  0  0  0  0  0  0  0  0  0  0  0
   -2.2000   -0.6580    2.2991 C   0  0  0  0  0  0  0  0  0  0  0  0
   -3.4338   -0.7304    2.9112 C   0  0  0  0  0  0  0  0  0  0  0  0
   -4.3085   -1.2835    2.0133 N   0  0  0  0  0  0  0  0  0  0  0  0
   -3.6544   -1.5721    0.8470 C   0  0  0  0  0  0  0  0  0  0  0  0
   -4.2294   -2.1526   -0.2144 N   0  0  0  0  0  0  0  0  0  0  0  0
   -3.3399   -2.3441   -1.1990 C   0  0  0  0  0  0  0  0  0  0  0  0
   -2.0347   -2.0111   -1.2183 N   0  0  0  0  0  0  0  0  0  0  0  0
    2.5934    2.6682    1.0739 C   0  0  0  0  0  0  0  0  0  0  0  0
    1.9724    2.9251    2.1048 O   0  0  0  0  0  0  0  0  0  0  0  0
    3.5404    3.6647    0.4361 C   0  0  0  0  0  0  0  0  0  0  0  0
    3.7372    4.8593    1.2618 C   0  0  0  0  0  0  0  0  0  0  0  0
    3.9420    5.8322    1.8619 N   0  0  0  0  0  0  0  0  0  0  0  0
   -1.8622    1.2903   -1.5546 H   0  0  0  0  0  0  0  0  0  0  0  0
   -0.9031    0.2785   -2.6549 H   0  0  0  0  0  0  0  0  0  0  0  0
   -0.8814    2.0314   -2.8220 H   0  0  0  0  0  0  0  0  0  0  0  0
    0.2007    2.3437   -0.7176 H   0  0  0  0  0  0  0  0  0  0  0  0
    1.7102    2.2046   -2.4664 H   0  0  0  0  0  0  0  0  0  0  0  0
    1.6457    0.4669   -2.6069 H   0  0  0  0  0  0  0  0  0  0  0  0
    3.2462    0.1568   -0.9882 H   0  0  0  0  0  0  0  0  0  0  0  0
    3.6271    1.8383   -1.2918 H   0  0  0  0  0  0  0  0  0  0  0  0
    2.0084   -0.4991    1.0180 H   0  0  0  0  0  0  0  0  0  0  0  0
    1.2323    0.7124    2.0075 H   0  0  0  0  0  0  0  0  0  0  0  0
   -0.5929    0.8218    0.7434 H   0  0  0  0  0  0  0  0  0  0  0  0
    0.5070   -2.8602   -1.0099 H   0  0  0  0  0  0  0  0  0  0  0  0
    0.3936   -1.5265   -2.1783 H   0  0  0  0  0  0  0  0  0  0  0  0
    1.7213   -1.6035   -1.0104 H   0  0  0  0  0  0  0  0  0  0  0  0
   -1.2954   -0.2819    2.7585 H   0  0  0  0  0  0  0  0  0  0  0  0
   -3.7592   -0.4464    3.9033 H   0  0  0  0  0  0  0  0  0  0  0  0
   -5.2865   -1.4789    2.1701 H   0  0  0  0  0  0  0  0  0  0  0  0
   -3.7173   -2.8280   -2.0945 H   0  0  0  0  0  0  0  0  0  0  0  0
    4.5096    3.1791    0.2791 H   0  0  0  0  0  0  0  0  0  0  0  0
    3.1302    3.9622   -0.5349 H   0  0  0  0  0  0  0  0  0  0  0  0
  1  2  1  0
  2  3  1  0
  3  4  1  0
  4  5  1  0
  5  6  1  0
  6  7  1  0
  7  8  1  0
  8  9  1  0
  8 10  1  0
 10 11  2  0
 11 12  1  0
 12 13  2  0
 13 14  1  0
 14 15  1  0
 15 16  2  0
 16 17  1  0
 17 18  2  0
  5 19  1  0
 19 20  2  0
 19 21  1  0
 21 22  1  0
 22 23  3  0
  7  2  1  0
 18 10  1  0
 15 11  1  0
  1 24  1  0
  1 25  1  0
  1 26  1  0
  2 27  1  1
  3 28  1  0
  3 29  1  0
  4 30  1  0
  4 31  1  0
  6 32  1  0
  6 33  1  0
  7 34  1  1
  9 35  1  0
  9 36  1  0
  9 37  1  0
 12 38  1  0
 13 39  1  0
 14 40  1  0
 17 41  1  0
 21 42  1  0
 21 43  1  0
M  END
>  <energy_abs>  (107) 
19.165321370144433

>  <SMILES>  (107) 
C[C@@H]1CCN(C[C@@H]1N(C)c2c3cc[nH]c3ncn2)C(=O)CC#N

>  <cluster_no>  (107) 
107

>  <fda_drugs_id>  (107) 
UJLAWZDWDVHWOW-YPMHNXCESA-N

>  <initial_conformation_id>  (107) 
182

>  <minimize_method>  (107) 
MMFF

$$$$

     RDKit          3D

 43 45  0  0  0  0  0  0  0  0999 V2000
    2.8425   -1.4111   -0.6490 C   0  0  0  0  0  0  0  0  0  0  0  0
    1.8884   -0.4696   -1.4022 C   0  0  2  0  0  0  0  0  0  0  0  0
    2.6190    0.8693   -1.6595 C   0  0  0  0  0  0  0  0  0  0  0  0
    1.7373    2.0936   -1.4520 C   0  0  0  0  0  0  0  0  0  0  0  0
    1.1657    2.0989   -0.1054 N   0  0  0  0  0  0  0  0  0  0  0  0
    0.6813    0.8073    0.4149 C   0  0  0  0  0  0  0  0  0  0  0  0
    0.5126   -0.2676   -0.6928 C   0  0  2  0  0  0  0  0  0  0  0  0
   -0.0378   -1.5628   -0.2218 N   0  0  0  0  0  0  0  0  0  0  0  0
   -0.4074   -2.5274   -1.2610 C   0  0  0  0  0  0  0  0  0  0  0  0
   -1.0859   -1.4473    0.7086 C   0  0  0  0  0  0  0  0  0  0  0  0
   -2.3722   -0.9231    0.4485 C   0  0  0  0  0  0  0  0  0  0  0  0
   -3.0701   -0.3712   -0.6667 C   0  0  0  0  0  0  0  0  0  0  0  0
   -4.3392   -0.0294   -0.2479 C   0  0  0  0  0  0  0  0  0  0  0  0
   -4.4377   -0.3505    1.0814 N   0  0  0  0  0  0  0  0  0  0  0  0
   -3.2578   -0.8885    1.5156 C   0  0  0  0  0  0  0  0  0  0  0  0
   -3.0318   -1.2979    2.7707 N   0  0  0  0  0  0  0  0  0  0  0  0
   -1.7816   -1.7672    2.9097 C   0  0  0  0  0  0  0  0  0  0  0  0
   -0.8211   -1.8628    1.9713 N   0  0  0  0  0  0  0  0  0  0  0  0
    1.1055    3.1959    0.7474 C   0  0  0  0  0  0  0  0  0  0  0  0
    0.6879    3.0958    1.9040 O   0  0  0  0  0  0  0  0  0  0  0  0
    1.5360    4.5488    0.2303 C   0  0  0  0  0  0  0  0  0  0  0  0
    2.9796    4.7190    0.3778 C   0  0  0  0  0  0  0  0  0  0  0  0
    4.1291    4.8665    0.4442 N   0  0  0  0  0  0  0  0  0  0  0  0
    2.4318   -2.4199   -0.5516 H   0  0  0  0  0  0  0  0  0  0  0  0
    3.0624   -1.0385    0.3567 H   0  0  0  0  0  0  0  0  0  0  0  0
    3.7922   -1.5036   -1.1878 H   0  0  0  0  0  0  0  0  0  0  0  0
    1.6923   -0.9283   -2.3807 H   0  0  0  0  0  0  0  0  0  0  0  0
    3.0164    0.8731   -2.6817 H   0  0  0  0  0  0  0  0  0  0  0  0
    3.4882    0.9607   -0.9944 H   0  0  0  0  0  0  0  0  0  0  0  0
    0.9042    2.1000   -2.1641 H   0  0  0  0  0  0  0  0  0  0  0  0
    2.3268    2.9928   -1.6390 H   0  0  0  0  0  0  0  0  0  0  0  0
   -0.2675    1.0055    0.9246 H   0  0  0  0  0  0  0  0  0  0  0  0
    1.3898    0.4722    1.1824 H   0  0  0  0  0  0  0  0  0  0  0  0
   -0.1819    0.1419   -1.4404 H   0  0  0  0  0  0  0  0  0  0  0  0
   -0.8304   -3.4417   -0.8264 H   0  0  0  0  0  0  0  0  0  0  0  0
    0.4752   -2.8383   -1.8283 H   0  0  0  0  0  0  0  0  0  0  0  0
   -1.1258   -2.1109   -1.9750 H   0  0  0  0  0  0  0  0  0  0  0  0
   -2.6860   -0.2362   -1.6685 H   0  0  0  0  0  0  0  0  0  0  0  0
   -5.1744    0.4131   -0.7746 H   0  0  0  0  0  0  0  0  0  0  0  0
   -5.2430   -0.2159    1.6758 H   0  0  0  0  0  0  0  0  0  0  0  0
   -1.5084   -2.1138    3.9016 H   0  0  0  0  0  0  0  0  0  0  0  0
    1.2110    4.6829   -0.8057 H   0  0  0  0  0  0  0  0  0  0  0  0
    1.0064    5.3142    0.8100 H   0  0  0  0  0  0  0  0  0  0  0  0
  1  2  1  0
  2  3  1  0
  3  4  1  0
  4  5  1  0
  5  6  1  0
  6  7  1  0
  7  8  1  0
  8  9  1  0
  8 10  1  0
 10 11  2  0
 11 12  1  0
 12 13  2  0
 13 14  1  0
 14 15  1  0
 15 16  2  0
 16 17  1  0
 17 18  2  0
  5 19  1  0
 19 20  2  0
 19 21  1  0
 21 22  1  0
 22 23  3  0
  7  2  1  0
 18 10  1  0
 15 11  1  0
  1 24  1  0
  1 25  1  0
  1 26  1  0
  2 27  1  6
  3 28  1  0
  3 29  1  0
  4 30  1  0
  4 31  1  0
  6 32  1  0
  6 33  1  0
  7 34  1  6
  9 35  1  0
  9 36  1  0
  9 37  1  0
 12 38  1  0
 13 39  1  0
 14 40  1  0
 17 41  1  0
 21 42  1  0
 21 43  1  0
M  END
>  <energy_abs>  (108) 
21.66554995768429

>  <SMILES>  (108) 
C[C@@H]1CCN(C[C@@H]1N(C)c2c3cc[nH]c3ncn2)C(=O)CC#N

>  <cluster_no>  (108) 
108

>  <fda_drugs_id>  (108) 
UJLAWZDWDVHWOW-YPMHNXCESA-N

>  <initial_conformation_id>  (108) 
179

>  <minimize_method>  (108) 
MMFF

$$$$

     RDKit          3D

 43 45  0  0  0  0  0  0  0  0999 V2000
    1.8631   -1.5709   -2.1844 C   0  0  0  0  0  0  0  0  0  0  0  0
    1.3969   -0.1150   -2.3220 C   0  0  2  0  0  0  0  0  0  0  0  0
    2.5980    0.8416   -2.4185 C   0  0  0  0  0  0  0  0  0  0  0  0
    3.3594    0.9826   -1.1042 C   0  0  0  0  0  0  0  0  0  0  0  0
    2.4757    1.3050    0.0134 N   0  0  0  0  0  0  0  0  0  0  0  0
    1.2759    0.4634    0.1430 C   0  0  0  0  0  0  0  0  0  0  0  0
    0.4561    0.3590   -1.1769 C   0  0  2  0  0  0  0  0  0  0  0  0
   -0.7303   -0.5382   -1.0249 N   0  0  0  0  0  0  0  0  0  0  0  0
   -1.5658   -0.6672   -2.2307 C   0  0  0  0  0  0  0  0  0  0  0  0
   -1.6050   -0.0959    0.0048 C   0  0  0  0  0  0  0  0  0  0  0  0
   -2.3573   -0.9956    0.7836 C   0  0  0  0  0  0  0  0  0  0  0  0
   -2.5222   -2.4086    0.8564 C   0  0  0  0  0  0  0  0  0  0  0  0
   -3.4253   -2.6750    1.8647 C   0  0  0  0  0  0  0  0  0  0  0  0
   -3.8092   -1.4746    2.4079 N   0  0  0  0  0  0  0  0  0  0  0  0
   -3.1660   -0.4504    1.7680 C   0  0  0  0  0  0  0  0  0  0  0  0
   -3.3126    0.8474    2.0682 N   0  0  0  0  0  0  0  0  0  0  0  0
   -2.5544    1.6198    1.2732 C   0  0  0  0  0  0  0  0  0  0  0  0
   -1.7286    1.2279    0.2814 N   0  0  0  0  0  0  0  0  0  0  0  0
    2.9870    2.1021    1.0363 C   0  0  0  0  0  0  0  0  0  0  0  0
    4.1060    2.6184    0.9588 O   0  0  0  0  0  0  0  0  0  0  0  0
    2.1550    2.3371    2.2788 C   0  0  0  0  0  0  0  0  0  0  0  0
    1.1022    3.3207    2.0278 C   0  0  0  0  0  0  0  0  0  0  0  0
    0.2434    4.0846    1.8614 N   0  0  0  0  0  0  0  0  0  0  0  0
    2.4256   -1.7479   -1.2638 H   0  0  0  0  0  0  0  0  0  0  0  0
    2.5123   -1.8421   -3.0242 H   0  0  0  0  0  0  0  0  0  0  0  0
    1.0160   -2.2634   -2.1938 H   0  0  0  0  0  0  0  0  0  0  0  0
    0.8608   -0.0386   -3.2763 H   0  0  0  0  0  0  0  0  0  0  0  0
    2.2298    1.8319   -2.7181 H   0  0  0  0  0  0  0  0  0  0  0  0
    3.2845    0.5125   -3.2075 H   0  0  0  0  0  0  0  0  0  0  0  0
    3.8800    0.0521   -0.8504 H   0  0  0  0  0  0  0  0  0  0  0  0
    4.1280    1.7539   -1.2228 H   0  0  0  0  0  0  0  0  0  0  0  0
    0.6500    0.8492    0.9451 H   0  0  0  0  0  0  0  0  0  0  0  0
    1.6090   -0.5264    0.4780 H   0  0  0  0  0  0  0  0  0  0  0  0
    0.1157    1.3698   -1.4488 H   0  0  0  0  0  0  0  0  0  0  0  0
   -1.8778    0.3124   -2.6132 H   0  0  0  0  0  0  0  0  0  0  0  0
   -1.0182   -1.1847   -3.0240 H   0  0  0  0  0  0  0  0  0  0  0  0
   -2.4619   -1.2731   -2.0478 H   0  0  0  0  0  0  0  0  0  0  0  0
   -2.0274   -3.1424    0.2334 H   0  0  0  0  0  0  0  0  0  0  0  0
   -3.8241   -3.6074    2.2418 H   0  0  0  0  0  0  0  0  0  0  0  0
   -4.4609   -1.3397    3.1673 H   0  0  0  0  0  0  0  0  0  0  0  0
   -2.6057    2.6907    1.4511 H   0  0  0  0  0  0  0  0  0  0  0  0
    2.8249    2.7108    3.0628 H   0  0  0  0  0  0  0  0  0  0  0  0
    1.7588    1.3914    2.6593 H   0  0  0  0  0  0  0  0  0  0  0  0
  1  2  1  0
  2  3  1  0
  3  4  1  0
  4  5  1  0
  5  6  1  0
  6  7  1  0
  7  8  1  0
  8  9  1  0
  8 10  1  0
 10 11  2  0
 11 12  1  0
 12 13  2  0
 13 14  1  0
 14 15  1  0
 15 16  2  0
 16 17  1  0
 17 18  2  0
  5 19  1  0
 19 20  2  0
 19 21  1  0
 21 22  1  0
 22 23  3  0
  7  2  1  0
 18 10  1  0
 15 11  1  0
  1 24  1  0
  1 25  1  0
  1 26  1  0
  2 27  1  6
  3 28  1  0
  3 29  1  0
  4 30  1  0
  4 31  1  0
  6 32  1  0
  6 33  1  0
  7 34  1  6
  9 35  1  0
  9 36  1  0
  9 37  1  0
 12 38  1  0
 13 39  1  0
 14 40  1  0
 17 41  1  0
 21 42  1  0
 21 43  1  0
M  END
>  <energy_abs>  (109) 
7.6700014002694346

>  <SMILES>  (109) 
C[C@@H]1CCN(C[C@@H]1N(C)c2c3cc[nH]c3ncn2)C(=O)CC#N

>  <cluster_no>  (109) 
109

>  <fda_drugs_id>  (109) 
UJLAWZDWDVHWOW-YPMHNXCESA-N

>  <initial_conformation_id>  (109) 
176

>  <minimize_method>  (109) 
MMFF

$$$$

     RDKit          3D

 43 45  0  0  0  0  0  0  0  0999 V2000
   -0.3234    1.3229   -1.7304 C   0  0  0  0  0  0  0  0  0  0  0  0
   -0.4650    1.7401   -0.2571 C   0  0  2  0  0  0  0  0  0  0  0  0
    0.2218    3.1063   -0.0284 C   0  0  0  0  0  0  0  0  0  0  0  0
    1.5030    3.0346    0.8006 C   0  0  0  0  0  0  0  0  0  0  0  0
    2.2965    1.8610    0.4542 N   0  0  0  0  0  0  0  0  0  0  0  0
    1.6157    0.5647    0.5590 C   0  0  0  0  0  0  0  0  0  0  0  0
    0.0761    0.6637    0.7307 C   0  0  2  0  0  0  0  0  0  0  0  0
   -0.5984   -0.6499    0.5315 N   0  0  0  0  0  0  0  0  0  0  0  0
   -0.0213   -1.7796    1.2731 C   0  0  0  0  0  0  0  0  0  0  0  0
   -1.9791   -0.6076    0.8496 C   0  0  0  0  0  0  0  0  0  0  0  0
   -2.9216   -1.3950    0.1587 C   0  0  0  0  0  0  0  0  0  0  0  0
   -2.8926   -2.3311   -0.9151 C   0  0  0  0  0  0  0  0  0  0  0  0
   -4.1844   -2.7638   -1.1317 C   0  0  0  0  0  0  0  0  0  0  0  0
   -4.9950   -2.1196   -0.2314 N   0  0  0  0  0  0  0  0  0  0  0  0
   -4.2453   -1.2859    0.5529 C   0  0  0  0  0  0  0  0  0  0  0  0
   -4.7368   -0.5082    1.5273 N   0  0  0  0  0  0  0  0  0  0  0  0
   -3.7613    0.2025    2.1163 C   0  0  0  0  0  0  0  0  0  0  0  0
   -2.4409    0.2005    1.8405 N   0  0  0  0  0  0  0  0  0  0  0  0
    3.6757    1.8408    0.2456 C   0  0  0  0  0  0  0  0  0  0  0  0
    4.2795    0.7751    0.1180 O   0  0  0  0  0  0  0  0  0  0  0  0
    4.3817    3.1791    0.1794 C   0  0  0  0  0  0  0  0  0  0  0  0
    5.8100    3.0469   -0.1214 C   0  0  0  0  0  0  0  0  0  0  0  0
    6.9471    3.0207   -0.3558 N   0  0  0  0  0  0  0  0  0  0  0  0
   -0.7841    2.0727   -2.3834 H   0  0  0  0  0  0  0  0  0  0  0  0
   -0.8249    0.3710   -1.9292 H   0  0  0  0  0  0  0  0  0  0  0  0
    0.7249    1.2254   -2.0293 H   0  0  0  0  0  0  0  0  0  0  0  0
   -1.5382    1.8898   -0.0853 H   0  0  0  0  0  0  0  0  0  0  0  0
   -0.4765    3.7818    0.4816 H   0  0  0  0  0  0  0  0  0  0  0  0
    0.4459    3.5822   -0.9915 H   0  0  0  0  0  0  0  0  0  0  0  0
    1.2656    2.9584    1.8687 H   0  0  0  0  0  0  0  0  0  0  0  0
    2.0655    3.9622    0.6749 H   0  0  0  0  0  0  0  0  0  0  0  0
    1.8746   -0.0264   -0.3285 H   0  0  0  0  0  0  0  0  0  0  0  0
    2.0506    0.0450    1.4223 H   0  0  0  0  0  0  0  0  0  0  0  0
   -0.1025    1.0124    1.7584 H   0  0  0  0  0  0  0  0  0  0  0  0
    0.0347   -1.5682    2.3478 H   0  0  0  0  0  0  0  0  0  0  0  0
    0.9894   -1.9945    0.9111 H   0  0  0  0  0  0  0  0  0  0  0  0
   -0.5924   -2.7047    1.1280 H   0  0  0  0  0  0  0  0  0  0  0  0
   -2.0144   -2.6433   -1.4656 H   0  0  0  0  0  0  0  0  0  0  0  0
   -4.5946   -3.4654   -1.8458 H   0  0  0  0  0  0  0  0  0  0  0  0
   -5.9955   -2.2231   -0.1440 H   0  0  0  0  0  0  0  0  0  0  0  0
   -4.0747    0.8638    2.9185 H   0  0  0  0  0  0  0  0  0  0  0  0
    3.9093    3.7868   -0.6000 H   0  0  0  0  0  0  0  0  0  0  0  0
    4.2649    3.6833    1.1446 H   0  0  0  0  0  0  0  0  0  0  0  0
  1  2  1  0
  2  3  1  0
  3  4  1  0
  4  5  1  0
  5  6  1  0
  6  7  1  0
  7  8  1  0
  8  9  1  0
  8 10  1  0
 10 11  2  0
 11 12  1  0
 12 13  2  0
 13 14  1  0
 14 15  1  0
 15 16  2  0
 16 17  1  0
 17 18  2  0
  5 19  1  0
 19 20  2  0
 19 21  1  0
 21 22  1  0
 22 23  3  0
  7  2  1  0
 18 10  1  0
 15 11  1  0
  1 24  1  0
  1 25  1  0
  1 26  1  0
  2 27  1  1
  3 28  1  0
  3 29  1  0
  4 30  1  0
  4 31  1  0
  6 32  1  0
  6 33  1  0
  7 34  1  1
  9 35  1  0
  9 36  1  0
  9 37  1  0
 12 38  1  0
 13 39  1  0
 14 40  1  0
 17 41  1  0
 21 42  1  0
 21 43  1  0
M  END
>  <energy_abs>  (110) 
15.375623791231167

>  <SMILES>  (110) 
C[C@@H]1CCN(C[C@@H]1N(C)c2c3cc[nH]c3ncn2)C(=O)CC#N

>  <cluster_no>  (110) 
110

>  <fda_drugs_id>  (110) 
UJLAWZDWDVHWOW-YPMHNXCESA-N

>  <initial_conformation_id>  (110) 
171

>  <minimize_method>  (110) 
MMFF

$$$$

     RDKit          3D

 43 45  0  0  0  0  0  0  0  0999 V2000
    2.6166   -0.9922   -1.1636 C   0  0  0  0  0  0  0  0  0  0  0  0
    1.4125   -0.3408   -1.8635 C   0  0  2  0  0  0  0  0  0  0  0  0
    1.8657    0.9426   -2.6002 C   0  0  0  0  0  0  0  0  0  0  0  0
    1.3885    2.2413   -1.9494 C   0  0  0  0  0  0  0  0  0  0  0  0
    1.4423    2.1587   -0.4964 N   0  0  0  0  0  0  0  0  0  0  0  0
    0.6990    1.0510    0.1188 C   0  0  0  0  0  0  0  0  0  0  0  0
    0.2376   -0.0388   -0.8925 C   0  0  2  0  0  0  0  0  0  0  0  0
   -0.2593   -1.2623   -0.2131 N   0  0  0  0  0  0  0  0  0  0  0  0
   -0.6591   -2.3817   -1.0664 C   0  0  0  0  0  0  0  0  0  0  0  0
   -1.2506   -0.9754    0.7462 C   0  0  0  0  0  0  0  0  0  0  0  0
   -2.6029   -0.6634    0.4799 C   0  0  0  0  0  0  0  0  0  0  0  0
   -3.4353   -0.5121   -0.6687 C   0  0  0  0  0  0  0  0  0  0  0  0
   -4.7030   -0.1821   -0.2364 C   0  0  0  0  0  0  0  0  0  0  0  0
   -4.6722   -0.1226    1.1326 N   0  0  0  0  0  0  0  0  0  0  0  0
   -3.4088   -0.3984    1.5781 C   0  0  0  0  0  0  0  0  0  0  0  0
   -3.0485   -0.4005    2.8683 N   0  0  0  0  0  0  0  0  0  0  0  0
   -1.7474   -0.6944    3.0091 C   0  0  0  0  0  0  0  0  0  0  0  0
   -0.8476   -0.9546    2.0424 N   0  0  0  0  0  0  0  0  0  0  0  0
    2.0487    3.1811    0.2240 C   0  0  0  0  0  0  0  0  0  0  0  0
    2.5665    4.1530   -0.3321 O   0  0  0  0  0  0  0  0  0  0  0  0
    2.0760    3.0833    1.7346 C   0  0  0  0  0  0  0  0  0  0  0  0
    3.2885    2.3926    2.1702 C   0  0  0  0  0  0  0  0  0  0  0  0
    4.2351    1.8341    2.5443 N   0  0  0  0  0  0  0  0  0  0  0  0
    3.0904   -0.3137   -0.4472 H   0  0  0  0  0  0  0  0  0  0  0  0
    3.3764   -1.2742   -1.9011 H   0  0  0  0  0  0  0  0  0  0  0  0
    2.3302   -1.9027   -0.6293 H   0  0  0  0  0  0  0  0  0  0  0  0
    1.0741   -1.0478   -2.6315 H   0  0  0  0  0  0  0  0  0  0  0  0
    1.4903    0.9205   -3.6311 H   0  0  0  0  0  0  0  0  0  0  0  0
    2.9598    0.9638   -2.6828 H   0  0  0  0  0  0  0  0  0  0  0  0
    1.9828    3.0781   -2.3304 H   0  0  0  0  0  0  0  0  0  0  0  0
    0.3465    2.4472   -2.2234 H   0  0  0  0  0  0  0  0  0  0  0  0
    1.3256    0.6093    0.9017 H   0  0  0  0  0  0  0  0  0  0  0  0
   -0.1726    1.4981    0.6115 H   0  0  0  0  0  0  0  0  0  0  0  0
   -0.5820    0.3769   -1.4966 H   0  0  0  0  0  0  0  0  0  0  0  0
   -1.2997   -2.0614   -1.8941 H   0  0  0  0  0  0  0  0  0  0  0  0
    0.2271   -2.8588   -1.4973 H   0  0  0  0  0  0  0  0  0  0  0  0
   -1.1767   -3.1640   -0.4974 H   0  0  0  0  0  0  0  0  0  0  0  0
   -3.1422   -0.6273   -1.7033 H   0  0  0  0  0  0  0  0  0  0  0  0
   -5.6178    0.0152   -0.7800 H   0  0  0  0  0  0  0  0  0  0  0  0
   -5.4464    0.0973    1.7429 H   0  0  0  0  0  0  0  0  0  0  0  0
   -1.3698   -0.7216    4.0268 H   0  0  0  0  0  0  0  0  0  0  0  0
    1.1769    2.5986    2.1224 H   0  0  0  0  0  0  0  0  0  0  0  0
    2.0588    4.1043    2.1340 H   0  0  0  0  0  0  0  0  0  0  0  0
  1  2  1  0
  2  3  1  0
  3  4  1  0
  4  5  1  0
  5  6  1  0
  6  7  1  0
  7  8  1  0
  8  9  1  0
  8 10  1  0
 10 11  2  0
 11 12  1  0
 12 13  2  0
 13 14  1  0
 14 15  1  0
 15 16  2  0
 16 17  1  0
 17 18  2  0
  5 19  1  0
 19 20  2  0
 19 21  1  0
 21 22  1  0
 22 23  3  0
  7  2  1  0
 18 10  1  0
 15 11  1  0
  1 24  1  0
  1 25  1  0
  1 26  1  0
  2 27  1  6
  3 28  1  0
  3 29  1  0
  4 30  1  0
  4 31  1  0
  6 32  1  0
  6 33  1  0
  7 34  1  6
  9 35  1  0
  9 36  1  0
  9 37  1  0
 12 38  1  0
 13 39  1  0
 14 40  1  0
 17 41  1  0
 21 42  1  0
 21 43  1  0
M  END
>  <energy_abs>  (111) 
18.70576275555928

>  <SMILES>  (111) 
C[C@@H]1CCN(C[C@@H]1N(C)c2c3cc[nH]c3ncn2)C(=O)CC#N

>  <cluster_no>  (111) 
111

>  <fda_drugs_id>  (111) 
UJLAWZDWDVHWOW-YPMHNXCESA-N

>  <initial_conformation_id>  (111) 
170

>  <minimize_method>  (111) 
MMFF

$$$$

     RDKit          3D

 43 45  0  0  0  0  0  0  0  0999 V2000
    0.4682   -1.6222   -1.7946 C   0  0  0  0  0  0  0  0  0  0  0  0
    0.1169   -0.1781   -1.4295 C   0  0  2  0  0  0  0  0  0  0  0  0
    1.0062    0.7618   -2.2830 C   0  0  0  0  0  0  0  0  0  0  0  0
    1.3387    2.0805   -1.5936 C   0  0  0  0  0  0  0  0  0  0  0  0
    2.0275    1.8537   -0.3214 N   0  0  0  0  0  0  0  0  0  0  0  0
    1.6164    0.6736    0.4544 C   0  0  0  0  0  0  0  0  0  0  0  0
    0.1982    0.1866    0.0800 C   0  0  2  0  0  0  0  0  0  0  0  0
   -0.3352   -0.8121    1.0326 N   0  0  0  0  0  0  0  0  0  0  0  0
    0.4922   -1.9398    1.4559 C   0  0  0  0  0  0  0  0  0  0  0  0
   -1.6933   -1.1428    0.8829 C   0  0  0  0  0  0  0  0  0  0  0  0
   -2.7527   -0.2044    0.9148 C   0  0  0  0  0  0  0  0  0  0  0  0
   -2.9020    1.1984    1.1394 C   0  0  0  0  0  0  0  0  0  0  0  0
   -4.2416    1.5110    1.0385 C   0  0  0  0  0  0  0  0  0  0  0  0
   -4.9178    0.3482    0.7802 N   0  0  0  0  0  0  0  0  0  0  0  0
   -4.0369   -0.6966    0.7249 C   0  0  0  0  0  0  0  0  0  0  0  0
   -4.3983   -1.9707    0.5261 N   0  0  0  0  0  0  0  0  0  0  0  0
   -3.3342   -2.7839    0.5564 C   0  0  0  0  0  0  0  0  0  0  0  0
   -2.0404   -2.4521    0.7287 N   0  0  0  0  0  0  0  0  0  0  0  0
    2.9659    2.7925    0.1076 C   0  0  0  0  0  0  0  0  0  0  0  0
    3.1682    3.8284   -0.5258 O   0  0  0  0  0  0  0  0  0  0  0  0
    3.7036    2.4823    1.3956 C   0  0  0  0  0  0  0  0  0  0  0  0
    4.9088    3.3005    1.5553 C   0  0  0  0  0  0  0  0  0  0  0  0
    5.8836    3.9038    1.7406 N   0  0  0  0  0  0  0  0  0  0  0  0
   -0.2636   -2.3290   -1.3969 H   0  0  0  0  0  0  0  0  0  0  0  0
    0.4678   -1.7548   -2.8827 H   0  0  0  0  0  0  0  0  0  0  0  0
    1.4617   -1.8977   -1.4264 H   0  0  0  0  0  0  0  0  0  0  0  0
   -0.9238   -0.0191   -1.7448 H   0  0  0  0  0  0  0  0  0  0  0  0
    1.9530    0.2606   -2.5261 H   0  0  0  0  0  0  0  0  0  0  0  0
    0.5078    0.9602   -3.2396 H   0  0  0  0  0  0  0  0  0  0  0  0
    0.4272    2.6513   -1.3814 H   0  0  0  0  0  0  0  0  0  0  0  0
    1.9605    2.6932   -2.2552 H   0  0  0  0  0  0  0  0  0  0  0  0
    2.3634   -0.1048    0.2597 H   0  0  0  0  0  0  0  0  0  0  0  0
    1.6553    0.9140    1.5219 H   0  0  0  0  0  0  0  0  0  0  0  0
   -0.4178    1.0855    0.1951 H   0  0  0  0  0  0  0  0  0  0  0  0
    0.0696   -2.4169    2.3491 H   0  0  0  0  0  0  0  0  0  0  0  0
    0.6046   -2.7021    0.6802 H   0  0  0  0  0  0  0  0  0  0  0  0
    1.4931   -1.6067    1.7463 H   0  0  0  0  0  0  0  0  0  0  0  0
   -2.1162    1.9056    1.3674 H   0  0  0  0  0  0  0  0  0  0  0  0
   -4.7686    2.4504    1.1416 H   0  0  0  0  0  0  0  0  0  0  0  0
   -5.9162    0.2451    0.6698 H   0  0  0  0  0  0  0  0  0  0  0  0
   -3.5377   -3.8421    0.4243 H   0  0  0  0  0  0  0  0  0  0  0  0
    3.0210    2.6630    2.2327 H   0  0  0  0  0  0  0  0  0  0  0  0
    3.9965    1.4273    1.4037 H   0  0  0  0  0  0  0  0  0  0  0  0
  1  2  1  0
  2  3  1  0
  3  4  1  0
  4  5  1  0
  5  6  1  0
  6  7  1  0
  7  8  1  0
  8  9  1  0
  8 10  1  0
 10 11  2  0
 11 12  1  0
 12 13  2  0
 13 14  1  0
 14 15  1  0
 15 16  2  0
 16 17  1  0
 17 18  2  0
  5 19  1  0
 19 20  2  0
 19 21  1  0
 21 22  1  0
 22 23  3  0
  7  2  1  0
 18 10  1  0
 15 11  1  0
  1 24  1  0
  1 25  1  0
  1 26  1  0
  2 27  1  6
  3 28  1  0
  3 29  1  0
  4 30  1  0
  4 31  1  0
  6 32  1  0
  6 33  1  0
  7 34  1  6
  9 35  1  0
  9 36  1  0
  9 37  1  0
 12 38  1  0
 13 39  1  0
 14 40  1  0
 17 41  1  0
 21 42  1  0
 21 43  1  0
M  END
>  <energy_abs>  (112) 
17.85977289145547

>  <SMILES>  (112) 
C[C@@H]1CCN(C[C@@H]1N(C)c2c3cc[nH]c3ncn2)C(=O)CC#N

>  <cluster_no>  (112) 
112

>  <fda_drugs_id>  (112) 
UJLAWZDWDVHWOW-YPMHNXCESA-N

>  <initial_conformation_id>  (112) 
165

>  <minimize_method>  (112) 
MMFF

$$$$

     RDKit          3D

 43 45  0  0  0  0  0  0  0  0999 V2000
    2.1514   -1.7040    1.5054 C   0  0  0  0  0  0  0  0  0  0  0  0
    1.9095   -1.4546    0.0099 C   0  0  2  0  0  0  0  0  0  0  0  0
    3.0928   -0.7086   -0.6231 C   0  0  0  0  0  0  0  0  0  0  0  0
    3.2034    0.7353   -0.1507 C   0  0  0  0  0  0  0  0  0  0  0  0
    1.9496    1.4701   -0.3137 N   0  0  0  0  0  0  0  0  0  0  0  0
    0.7376    0.7928    0.1828 C   0  0  0  0  0  0  0  0  0  0  0  0
    0.5926   -0.6831   -0.2940 C   0  0  2  0  0  0  0  0  0  0  0  0
   -0.5806   -1.3694    0.3269 N   0  0  0  0  0  0  0  0  0  0  0  0
   -0.8186   -2.7416   -0.1477 C   0  0  0  0  0  0  0  0  0  0  0  0
   -1.7916   -0.6688    0.0937 C   0  0  0  0  0  0  0  0  0  0  0  0
   -2.7620   -0.5225    1.1018 C   0  0  0  0  0  0  0  0  0  0  0  0
   -2.8973   -0.9099    2.4654 C   0  0  0  0  0  0  0  0  0  0  0  0
   -4.1168   -0.4466    2.9144 C   0  0  0  0  0  0  0  0  0  0  0  0
   -4.7219    0.2101    1.8723 N   0  0  0  0  0  0  0  0  0  0  0  0
   -3.9141    0.1706    0.7687 C   0  0  0  0  0  0  0  0  0  0  0  0
   -4.2123    0.7197   -0.4169 N   0  0  0  0  0  0  0  0  0  0  0  0
   -3.2207    0.5261   -1.3028 C   0  0  0  0  0  0  0  0  0  0  0  0
   -2.0549   -0.1289   -1.1240 N   0  0  0  0  0  0  0  0  0  0  0  0
    1.8994    2.8684   -0.3676 C   0  0  0  0  0  0  0  0  0  0  0  0
    0.8692    3.4999   -0.1184 O   0  0  0  0  0  0  0  0  0  0  0  0
    3.1383    3.6248   -0.7929 C   0  0  0  0  0  0  0  0  0  0  0  0
    4.0252    3.8456    0.3467 C   0  0  0  0  0  0  0  0  0  0  0  0
    4.7638    3.9930    1.2300 N   0  0  0  0  0  0  0  0  0  0  0  0
    3.1004   -2.2306    1.6551 H   0  0  0  0  0  0  0  0  0  0  0  0
    1.3639   -2.3296    1.9367 H   0  0  0  0  0  0  0  0  0  0  0  0
    2.1920   -0.7776    2.0847 H   0  0  0  0  0  0  0  0  0  0  0  0
    1.8656   -2.4374   -0.4761 H   0  0  0  0  0  0  0  0  0  0  0  0
    2.9676   -0.7151   -1.7139 H   0  0  0  0  0  0  0  0  0  0  0  0
    4.0308   -1.2363   -0.4135 H   0  0  0  0  0  0  0  0  0  0  0  0
    3.4775    0.7845    0.9092 H   0  0  0  0  0  0  0  0  0  0  0  0
    4.0094    1.2171   -0.7087 H   0  0  0  0  0  0  0  0  0  0  0  0
    0.7570    0.8501    1.2784 H   0  0  0  0  0  0  0  0  0  0  0  0
   -0.1329    1.3738   -0.1376 H   0  0  0  0  0  0  0  0  0  0  0  0
    0.4733   -0.6735   -1.3879 H   0  0  0  0  0  0  0  0  0  0  0  0
   -0.0131   -3.4059    0.1798 H   0  0  0  0  0  0  0  0  0  0  0  0
   -0.8777   -2.7901   -1.2420 H   0  0  0  0  0  0  0  0  0  0  0  0
   -1.7403   -3.1637    0.2728 H   0  0  0  0  0  0  0  0  0  0  0  0
   -2.1712   -1.4636    3.0465 H   0  0  0  0  0  0  0  0  0  0  0  0
   -4.6006   -0.5214    3.8792 H   0  0  0  0  0  0  0  0  0  0  0  0
   -5.6223    0.6663    1.8920 H   0  0  0  0  0  0  0  0  0  0  0  0
   -3.3776    0.9491   -2.2905 H   0  0  0  0  0  0  0  0  0  0  0  0
    2.8172    4.5879   -1.2076 H   0  0  0  0  0  0  0  0  0  0  0  0
    3.6404    3.1031   -1.6127 H   0  0  0  0  0  0  0  0  0  0  0  0
  1  2  1  0
  2  3  1  0
  3  4  1  0
  4  5  1  0
  5  6  1  0
  6  7  1  0
  7  8  1  0
  8  9  1  0
  8 10  1  0
 10 11  2  0
 11 12  1  0
 12 13  2  0
 13 14  1  0
 14 15  1  0
 15 16  2  0
 16 17  1  0
 17 18  2  0
  5 19  1  0
 19 20  2  0
 19 21  1  0
 21 22  1  0
 22 23  3  0
  7  2  1  0
 18 10  1  0
 15 11  1  0
  1 24  1  0
  1 25  1  0
  1 26  1  0
  2 27  1  6
  3 28  1  0
  3 29  1  0
  4 30  1  0
  4 31  1  0
  6 32  1  0
  6 33  1  0
  7 34  1  6
  9 35  1  0
  9 36  1  0
  9 37  1  0
 12 38  1  0
 13 39  1  0
 14 40  1  0
 17 41  1  0
 21 42  1  0
 21 43  1  0
M  END
>  <energy_abs>  (113) 
10.074112313072275

>  <SMILES>  (113) 
C[C@@H]1CCN(C[C@@H]1N(C)c2c3cc[nH]c3ncn2)C(=O)CC#N

>  <cluster_no>  (113) 
113

>  <fda_drugs_id>  (113) 
UJLAWZDWDVHWOW-YPMHNXCESA-N

>  <initial_conformation_id>  (113) 
162

>  <minimize_method>  (113) 
MMFF

$$$$

     RDKit          3D

 43 45  0  0  0  0  0  0  0  0999 V2000
    0.2166    0.5196   -2.6871 C   0  0  0  0  0  0  0  0  0  0  0  0
    0.2485    1.5720   -1.5757 C   0  0  2  0  0  0  0  0  0  0  0  0
    1.4466    2.5168   -1.8192 C   0  0  0  0  0  0  0  0  0  0  0  0
    1.8951    3.2395   -0.5534 C   0  0  0  0  0  0  0  0  0  0  0  0
    2.3170    2.2977    0.4861 N   0  0  0  0  0  0  0  0  0  0  0  0
    1.6702    0.9750    0.4732 C   0  0  0  0  0  0  0  0  0  0  0  0
    0.2431    1.0232   -0.1210 C   0  0  2  0  0  0  0  0  0  0  0  0
   -0.4927   -0.2444    0.0571 N   0  0  0  0  0  0  0  0  0  0  0  0
    0.1427   -1.5231   -0.2085 C   0  0  0  0  0  0  0  0  0  0  0  0
   -1.8795   -0.1755    0.2017 C   0  0  0  0  0  0  0  0  0  0  0  0
   -2.7445   -1.2572    0.5198 C   0  0  0  0  0  0  0  0  0  0  0  0
   -2.6284   -2.6511    0.8222 C   0  0  0  0  0  0  0  0  0  0  0  0
   -3.8909   -3.1568    1.0522 C   0  0  0  0  0  0  0  0  0  0  0  0
   -4.7770   -2.1246    0.9114 N   0  0  0  0  0  0  0  0  0  0  0  0
   -4.1038   -0.9751    0.6032 C   0  0  0  0  0  0  0  0  0  0  0  0
   -4.7059    0.2070    0.4242 N   0  0  0  0  0  0  0  0  0  0  0  0
   -3.8134    1.1639    0.1494 C   0  0  0  0  0  0  0  0  0  0  0  0
   -2.4782    1.0416    0.0384 N   0  0  0  0  0  0  0  0  0  0  0  0
    3.3015    2.6989    1.3815 C   0  0  0  0  0  0  0  0  0  0  0  0
    3.7806    3.8360    1.3508 O   0  0  0  0  0  0  0  0  0  0  0  0
    3.7758    1.7249    2.4375 C   0  0  0  0  0  0  0  0  0  0  0  0
    4.5630    0.6474    1.8422 C   0  0  0  0  0  0  0  0  0  0  0  0
    5.1557   -0.2375    1.3800 N   0  0  0  0  0  0  0  0  0  0  0  0
    1.0851   -0.1443   -2.6368 H   0  0  0  0  0  0  0  0  0  0  0  0
    0.2262    1.0024   -3.6709 H   0  0  0  0  0  0  0  0  0  0  0  0
   -0.6922   -0.0878   -2.6396 H   0  0  0  0  0  0  0  0  0  0  0  0
   -0.6655    2.1707   -1.6929 H   0  0  0  0  0  0  0  0  0  0  0  0
    1.1797    3.2504   -2.5895 H   0  0  0  0  0  0  0  0  0  0  0  0
    2.2984    1.9462   -2.2129 H   0  0  0  0  0  0  0  0  0  0  0  0
    2.7143    3.9256   -0.7941 H   0  0  0  0  0  0  0  0  0  0  0  0
    1.0756    3.8388   -0.1396 H   0  0  0  0  0  0  0  0  0  0  0  0
    1.6301    0.5688    1.4875 H   0  0  0  0  0  0  0  0  0  0  0  0
    2.3222    0.3228   -0.1179 H   0  0  0  0  0  0  0  0  0  0  0  0
   -0.2539    1.7885    0.4953 H   0  0  0  0  0  0  0  0  0  0  0  0
    0.2522   -2.0924    0.7198 H   0  0  0  0  0  0  0  0  0  0  0  0
   -0.4211   -2.1124   -0.9400 H   0  0  0  0  0  0  0  0  0  0  0  0
    1.1470   -1.4107   -0.6259 H   0  0  0  0  0  0  0  0  0  0  0  0
   -1.7220   -3.2366    0.8757 H   0  0  0  0  0  0  0  0  0  0  0  0
   -4.2294   -4.1523    1.3069 H   0  0  0  0  0  0  0  0  0  0  0  0
   -5.7793   -2.1719    1.0240 H   0  0  0  0  0  0  0  0  0  0  0  0
   -4.2121    2.1618   -0.0033 H   0  0  0  0  0  0  0  0  0  0  0  0
    4.3943    2.2780    3.1544 H   0  0  0  0  0  0  0  0  0  0  0  0
    2.9219    1.3456    3.0059 H   0  0  0  0  0  0  0  0  0  0  0  0
  1  2  1  0
  2  3  1  0
  3  4  1  0
  4  5  1  0
  5  6  1  0
  6  7  1  0
  7  8  1  0
  8  9  1  0
  8 10  1  0
 10 11  2  0
 11 12  1  0
 12 13  2  0
 13 14  1  0
 14 15  1  0
 15 16  2  0
 16 17  1  0
 17 18  2  0
  5 19  1  0
 19 20  2  0
 19 21  1  0
 21 22  1  0
 22 23  3  0
  7  2  1  0
 18 10  1  0
 15 11  1  0
  1 24  1  0
  1 25  1  0
  1 26  1  0
  2 27  1  1
  3 28  1  0
  3 29  1  0
  4 30  1  0
  4 31  1  0
  6 32  1  0
  6 33  1  0
  7 34  1  1
  9 35  1  0
  9 36  1  0
  9 37  1  0
 12 38  1  0
 13 39  1  0
 14 40  1  0
 17 41  1  0
 21 42  1  0
 21 43  1  0
M  END
>  <energy_abs>  (114) 
16.043177978045065

>  <SMILES>  (114) 
C[C@@H]1CCN(C[C@@H]1N(C)c2c3cc[nH]c3ncn2)C(=O)CC#N

>  <cluster_no>  (114) 
114

>  <fda_drugs_id>  (114) 
UJLAWZDWDVHWOW-YPMHNXCESA-N

>  <initial_conformation_id>  (114) 
158

>  <minimize_method>  (114) 
MMFF

$$$$

     RDKit          3D

 43 45  0  0  0  0  0  0  0  0999 V2000
   -0.1795    1.2327   -2.0533 C   0  0  0  0  0  0  0  0  0  0  0  0
   -0.0888    1.6454   -0.5773 C   0  0  2  0  0  0  0  0  0  0  0  0
    0.9082    2.7961   -0.3846 C   0  0  0  0  0  0  0  0  0  0  0  0
    2.3540    2.3726   -0.6116 C   0  0  0  0  0  0  0  0  0  0  0  0
    2.7204    1.1928    0.1710 N   0  0  0  0  0  0  0  0  0  0  0  0
    1.7689    0.0711    0.1412 C   0  0  0  0  0  0  0  0  0  0  0  0
    0.2892    0.4759    0.3795 C   0  0  2  0  0  0  0  0  0  0  0  0
   -0.6432   -0.6787    0.2067 N   0  0  0  0  0  0  0  0  0  0  0  0
   -0.2776   -1.9036    0.9329 C   0  0  0  0  0  0  0  0  0  0  0  0
   -1.9721   -0.3623    0.5917 C   0  0  0  0  0  0  0  0  0  0  0  0
   -3.0855   -0.9296   -0.0599 C   0  0  0  0  0  0  0  0  0  0  0  0
   -3.2964   -1.8336   -1.1409 C   0  0  0  0  0  0  0  0  0  0  0  0
   -4.6578   -1.9907   -1.2990 C   0  0  0  0  0  0  0  0  0  0  0  0
   -5.2784   -1.2111   -0.3558 N   0  0  0  0  0  0  0  0  0  0  0  0
   -4.3399   -0.5612    0.3985 C   0  0  0  0  0  0  0  0  0  0  0  0
   -4.6185    0.2820    1.4020 N   0  0  0  0  0  0  0  0  0  0  0  0
   -3.4928    0.7680    1.9509 C   0  0  0  0  0  0  0  0  0  0  0  0
   -2.2152    0.5019    1.6116 N   0  0  0  0  0  0  0  0  0  0  0  0
    4.0340    0.8932    0.5405 C   0  0  0  0  0  0  0  0  0  0  0  0
    4.3564   -0.2256    0.9507 O   0  0  0  0  0  0  0  0  0  0  0  0
    5.0908    1.9701    0.4336 C   0  0  0  0  0  0  0  0  0  0  0  0
    4.9766    2.9150    1.5425 C   0  0  0  0  0  0  0  0  0  0  0  0
    4.8893    3.6979    2.3952 N   0  0  0  0  0  0  0  0  0  0  0  0
    0.7524    0.7994   -2.4267 H   0  0  0  0  0  0  0  0  0  0  0  0
   -0.9745    0.4974   -2.2107 H   0  0  0  0  0  0  0  0  0  0  0  0
   -0.4153    2.1012   -2.6780 H   0  0  0  0  0  0  0  0  0  0  0  0
   -1.0763    2.0355   -0.3006 H   0  0  0  0  0  0  0  0  0  0  0  0
    0.6610    3.6296   -1.0526 H   0  0  0  0  0  0  0  0  0  0  0  0
    0.8085    3.1770    0.6404 H   0  0  0  0  0  0  0  0  0  0  0  0
    3.0005    3.2169   -0.3615 H   0  0  0  0  0  0  0  0  0  0  0  0
    2.5362    2.1339   -1.6655 H   0  0  0  0  0  0  0  0  0  0  0  0
    1.8896   -0.4334   -0.8254 H   0  0  0  0  0  0  0  0  0  0  0  0
    2.0647   -0.6523    0.9088 H   0  0  0  0  0  0  0  0  0  0  0  0
    0.2384    0.8443    1.4149 H   0  0  0  0  0  0  0  0  0  0  0  0
    0.6340   -2.3359    0.5076 H   0  0  0  0  0  0  0  0  0  0  0  0
   -0.1051   -1.7047    1.9975 H   0  0  0  0  0  0  0  0  0  0  0  0
   -1.0436   -2.6838    0.8433 H   0  0  0  0  0  0  0  0  0  0  0  0
   -2.5260   -2.3088   -1.7343 H   0  0  0  0  0  0  0  0  0  0  0  0
   -5.2346   -2.5821   -1.9976 H   0  0  0  0  0  0  0  0  0  0  0  0
   -6.2739   -1.1109   -0.2203 H   0  0  0  0  0  0  0  0  0  0  0  0
   -3.6272    1.4639    2.7736 H   0  0  0  0  0  0  0  0  0  0  0  0
    6.0725    1.4822    0.4629 H   0  0  0  0  0  0  0  0  0  0  0  0
    5.0350    2.4658   -0.5397 H   0  0  0  0  0  0  0  0  0  0  0  0
  1  2  1  0
  2  3  1  0
  3  4  1  0
  4  5  1  0
  5  6  1  0
  6  7  1  0
  7  8  1  0
  8  9  1  0
  8 10  1  0
 10 11  2  0
 11 12  1  0
 12 13  2  0
 13 14  1  0
 14 15  1  0
 15 16  2  0
 16 17  1  0
 17 18  2  0
  5 19  1  0
 19 20  2  0
 19 21  1  0
 21 22  1  0
 22 23  3  0
  7  2  1  0
 18 10  1  0
 15 11  1  0
  1 24  1  0
  1 25  1  0
  1 26  1  0
  2 27  1  1
  3 28  1  0
  3 29  1  0
  4 30  1  0
  4 31  1  0
  6 32  1  0
  6 33  1  0
  7 34  1  1
  9 35  1  0
  9 36  1  0
  9 37  1  0
 12 38  1  0
 13 39  1  0
 14 40  1  0
 17 41  1  0
 21 42  1  0
 21 43  1  0
M  END
>  <energy_abs>  (115) 
10.08526734311738

>  <SMILES>  (115) 
C[C@@H]1CCN(C[C@@H]1N(C)c2c3cc[nH]c3ncn2)C(=O)CC#N

>  <cluster_no>  (115) 
115

>  <fda_drugs_id>  (115) 
UJLAWZDWDVHWOW-YPMHNXCESA-N

>  <initial_conformation_id>  (115) 
155

>  <minimize_method>  (115) 
MMFF

$$$$

     RDKit          3D

 43 45  0  0  0  0  0  0  0  0999 V2000
    1.5029   -0.9343   -3.0779 C   0  0  0  0  0  0  0  0  0  0  0  0
    1.5035   -0.0058   -1.8657 C   0  0  2  0  0  0  0  0  0  0  0  0
    2.6050   -0.3626   -0.8544 C   0  0  0  0  0  0  0  0  0  0  0  0
    2.3618    0.2165    0.5452 C   0  0  0  0  0  0  0  0  0  0  0  0
    1.6060    1.4703    0.5174 N   0  0  0  0  0  0  0  0  0  0  0  0
    0.3639    1.4808   -0.2742 C   0  0  0  0  0  0  0  0  0  0  0  0
    0.1395    0.2096   -1.1600 C   0  0  2  0  0  0  0  0  0  0  0  0
   -0.2929   -0.9716   -0.3541 N   0  0  0  0  0  0  0  0  0  0  0  0
   -0.5611   -2.2225   -1.0610 C   0  0  0  0  0  0  0  0  0  0  0  0
   -1.3880   -0.6936    0.4928 C   0  0  0  0  0  0  0  0  0  0  0  0
   -2.6944   -0.3595    0.0708 C   0  0  0  0  0  0  0  0  0  0  0  0
   -3.3798   -0.1911   -1.1686 C   0  0  0  0  0  0  0  0  0  0  0  0
   -4.6863    0.1517   -0.8883 C   0  0  0  0  0  0  0  0  0  0  0  0
   -4.8206    0.1962    0.4754 N   0  0  0  0  0  0  0  0  0  0  0  0
   -3.6273   -0.1142    1.0674 C   0  0  0  0  0  0  0  0  0  0  0  0
   -3.4304   -0.1624    2.3915 N   0  0  0  0  0  0  0  0  0  0  0  0
   -2.1615   -0.4909    2.6816 C   0  0  0  0  0  0  0  0  0  0  0  0
   -1.1542   -0.7547    1.8280 N   0  0  0  0  0  0  0  0  0  0  0  0
    1.8239    2.5622    1.3483 C   0  0  0  0  0  0  0  0  0  0  0  0
    1.1015    3.5630    1.3019 O   0  0  0  0  0  0  0  0  0  0  0  0
    2.9718    2.5203    2.3290 C   0  0  0  0  0  0  0  0  0  0  0  0
    4.2235    2.8790    1.6656 C   0  0  0  0  0  0  0  0  0  0  0  0
    5.2354    3.1319    1.1555 N   0  0  0  0  0  0  0  0  0  0  0  0
    2.4029   -0.7611   -3.6793 H   0  0  0  0  0  0  0  0  0  0  0  0
    0.6367   -0.7424   -3.7190 H   0  0  0  0  0  0  0  0  0  0  0  0
    1.5118   -1.9914   -2.8084 H   0  0  0  0  0  0  0  0  0  0  0  0
    1.7769    0.9745   -2.2879 H   0  0  0  0  0  0  0  0  0  0  0  0
    3.5596    0.0191   -1.2395 H   0  0  0  0  0  0  0  0  0  0  0  0
    2.7264   -1.4490   -0.7662 H   0  0  0  0  0  0  0  0  0  0  0  0
    3.3284    0.3429    1.0375 H   0  0  0  0  0  0  0  0  0  0  0  0
    1.7969   -0.4876    1.1660 H   0  0  0  0  0  0  0  0  0  0  0  0
    0.4252    2.3588   -0.9319 H   0  0  0  0  0  0  0  0  0  0  0  0
   -0.4745    1.6777    0.4022 H   0  0  0  0  0  0  0  0  0  0  0  0
   -0.6251    0.4433   -1.9110 H   0  0  0  0  0  0  0  0  0  0  0  0
    0.3782   -2.7559   -1.2272 H   0  0  0  0  0  0  0  0  0  0  0  0
   -1.1818   -2.9140   -0.4757 H   0  0  0  0  0  0  0  0  0  0  0  0
   -1.0521   -2.0523   -2.0251 H   0  0  0  0  0  0  0  0  0  0  0  0
   -2.9639   -0.3080   -2.1602 H   0  0  0  0  0  0  0  0  0  0  0  0
   -5.5263    0.3669   -1.5356 H   0  0  0  0  0  0  0  0  0  0  0  0
   -5.6599    0.4202    0.9905 H   0  0  0  0  0  0  0  0  0  0  0  0
   -1.9146   -0.5524    3.7370 H   0  0  0  0  0  0  0  0  0  0  0  0
    3.0268    1.5414    2.8139 H   0  0  0  0  0  0  0  0  0  0  0  0
    2.7553    3.2368    3.1303 H   0  0  0  0  0  0  0  0  0  0  0  0
  1  2  1  0
  2  3  1  0
  3  4  1  0
  4  5  1  0
  5  6  1  0
  6  7  1  0
  7  8  1  0
  8  9  1  0
  8 10  1  0
 10 11  2  0
 11 12  1  0
 12 13  2  0
 13 14  1  0
 14 15  1  0
 15 16  2  0
 16 17  1  0
 17 18  2  0
  5 19  1  0
 19 20  2  0
 19 21  1  0
 21 22  1  0
 22 23  3  0
  7  2  1  0
 18 10  1  0
 15 11  1  0
  1 24  1  0
  1 25  1  0
  1 26  1  0
  2 27  1  6
  3 28  1  0
  3 29  1  0
  4 30  1  0
  4 31  1  0
  6 32  1  0
  6 33  1  0
  7 34  1  6
  9 35  1  0
  9 36  1  0
  9 37  1  0
 12 38  1  0
 13 39  1  0
 14 40  1  0
 17 41  1  0
 21 42  1  0
 21 43  1  0
M  END
>  <energy_abs>  (116) 
19.801484026589353

>  <SMILES>  (116) 
C[C@@H]1CCN(C[C@@H]1N(C)c2c3cc[nH]c3ncn2)C(=O)CC#N

>  <cluster_no>  (116) 
116

>  <fda_drugs_id>  (116) 
UJLAWZDWDVHWOW-YPMHNXCESA-N

>  <initial_conformation_id>  (116) 
154

>  <minimize_method>  (116) 
MMFF

$$$$

     RDKit          3D

 43 45  0  0  0  0  0  0  0  0999 V2000
   -0.1912   -0.1237   -2.9444 C   0  0  0  0  0  0  0  0  0  0  0  0
    0.7968    0.5006   -1.9592 C   0  0  2  0  0  0  0  0  0  0  0  0
    2.2038   -0.0865   -2.1331 C   0  0  0  0  0  0  0  0  0  0  0  0
    3.2233    0.7013   -1.3101 C   0  0  0  0  0  0  0  0  0  0  0  0
    2.7700    1.0182    0.0431 N   0  0  0  0  0  0  0  0  0  0  0  0
    1.5622    0.3326    0.5084 C   0  0  0  0  0  0  0  0  0  0  0  0
    0.3619    0.5010   -0.4638 C   0  0  2  0  0  0  0  0  0  0  0  0
   -0.6990   -0.4748   -0.1378 N   0  0  0  0  0  0  0  0  0  0  0  0
   -0.4200   -1.8987   -0.1476 C   0  0  0  0  0  0  0  0  0  0  0  0
   -1.9891   -0.0063    0.1032 C   0  0  0  0  0  0  0  0  0  0  0  0
   -3.0797   -0.7631    0.6128 C   0  0  0  0  0  0  0  0  0  0  0  0
   -3.3219   -2.0976    1.0705 C   0  0  0  0  0  0  0  0  0  0  0  0
   -4.6431   -2.1983    1.4536 C   0  0  0  0  0  0  0  0  0  0  0  0
   -5.2209   -0.9750    1.2550 N   0  0  0  0  0  0  0  0  0  0  0  0
   -4.2940   -0.1004    0.7597 C   0  0  0  0  0  0  0  0  0  0  0  0
   -4.5661    1.1798    0.4799 N   0  0  0  0  0  0  0  0  0  0  0  0
   -3.4823    1.8121    0.0197 C   0  0  0  0  0  0  0  0  0  0  0  0
   -2.2502    1.3064   -0.1700 N   0  0  0  0  0  0  0  0  0  0  0  0
    3.6249    1.7822    0.8393 C   0  0  0  0  0  0  0  0  0  0  0  0
    4.6892    2.2102    0.3910 O   0  0  0  0  0  0  0  0  0  0  0  0
    3.1792    2.0625    2.2600 C   0  0  0  0  0  0  0  0  0  0  0  0
    4.1374    2.8925    2.9957 C   0  0  0  0  0  0  0  0  0  0  0  0
    4.8510    3.5435    3.6404 N   0  0  0  0  0  0  0  0  0  0  0  0
   -0.2671   -1.2075   -2.8201 H   0  0  0  0  0  0  0  0  0  0  0  0
   -1.1883    0.3142   -2.8360 H   0  0  0  0  0  0  0  0  0  0  0  0
    0.1336    0.0604   -3.9747 H   0  0  0  0  0  0  0  0  0  0  0  0
    0.8731    1.5588   -2.2529 H   0  0  0  0  0  0  0  0  0  0  0  0
    2.2135   -1.1388   -1.8261 H   0  0  0  0  0  0  0  0  0  0  0  0
    2.5056   -0.0673   -3.1871 H   0  0  0  0  0  0  0  0  0  0  0  0
    3.4550    1.6486   -1.8127 H   0  0  0  0  0  0  0  0  0  0  0  0
    4.1600    0.1361   -1.2371 H   0  0  0  0  0  0  0  0  0  0  0  0
    1.8447   -0.7191    0.6321 H   0  0  0  0  0  0  0  0  0  0  0  0
    1.2590    0.6775    1.5004 H   0  0  0  0  0  0  0  0  0  0  0  0
    0.0139    1.5247   -0.2709 H   0  0  0  0  0  0  0  0  0  0  0  0
   -0.3975   -2.2932    0.8732 H   0  0  0  0  0  0  0  0  0  0  0  0
   -1.1560   -2.4488   -0.7437 H   0  0  0  0  0  0  0  0  0  0  0  0
    0.5534   -2.1213   -0.5940 H   0  0  0  0  0  0  0  0  0  0  0  0
   -2.6142   -2.9119    1.1252 H   0  0  0  0  0  0  0  0  0  0  0  0
   -5.2142   -3.0275    1.8500 H   0  0  0  0  0  0  0  0  0  0  0  0
   -6.1805   -0.7241    1.4442 H   0  0  0  0  0  0  0  0  0  0  0  0
   -3.6087    2.8605   -0.2316 H   0  0  0  0  0  0  0  0  0  0  0  0
    3.0600    1.1083    2.7844 H   0  0  0  0  0  0  0  0  0  0  0  0
    2.2124    2.5762    2.2284 H   0  0  0  0  0  0  0  0  0  0  0  0
  1  2  1  0
  2  3  1  0
  3  4  1  0
  4  5  1  0
  5  6  1  0
  6  7  1  0
  7  8  1  0
  8  9  1  0
  8 10  1  0
 10 11  2  0
 11 12  1  0
 12 13  2  0
 13 14  1  0
 14 15  1  0
 15 16  2  0
 16 17  1  0
 17 18  2  0
  5 19  1  0
 19 20  2  0
 19 21  1  0
 21 22  1  0
 22 23  3  0
  7  2  1  0
 18 10  1  0
 15 11  1  0
  1 24  1  0
  1 25  1  0
  1 26  1  0
  2 27  1  6
  3 28  1  0
  3 29  1  0
  4 30  1  0
  4 31  1  0
  6 32  1  0
  6 33  1  0
  7 34  1  1
  9 35  1  0
  9 36  1  0
  9 37  1  0
 12 38  1  0
 13 39  1  0
 14 40  1  0
 17 41  1  0
 21 42  1  0
 21 43  1  0
M  END
>  <energy_abs>  (117) 
17.38898357129327

>  <SMILES>  (117) 
C[C@@H]1CCN(C[C@@H]1N(C)c2c3cc[nH]c3ncn2)C(=O)CC#N

>  <cluster_no>  (117) 
117

>  <fda_drugs_id>  (117) 
UJLAWZDWDVHWOW-YPMHNXCESA-N

>  <initial_conformation_id>  (117) 
149

>  <minimize_method>  (117) 
MMFF

$$$$

     RDKit          3D

 43 45  0  0  0  0  0  0  0  0999 V2000
   -1.6232    2.4279    1.1936 C   0  0  0  0  0  0  0  0  0  0  0  0
   -0.1903    1.8997    1.2082 C   0  0  2  0  0  0  0  0  0  0  0  0
    0.6831    2.5909    0.1480 C   0  0  0  0  0  0  0  0  0  0  0  0
    1.9010    1.7728   -0.2926 C   0  0  0  0  0  0  0  0  0  0  0  0
    2.4386    0.9041    0.7590 N   0  0  0  0  0  0  0  0  0  0  0  0
    1.4722    0.1276    1.5514 C   0  0  0  0  0  0  0  0  0  0  0  0
   -0.0217    0.3579    1.1726 C   0  0  2  0  0  0  0  0  0  0  0  0
   -0.3567   -0.2340   -0.1542 N   0  0  0  0  0  0  0  0  0  0  0  0
    0.1442   -1.5816   -0.4404 C   0  0  0  0  0  0  0  0  0  0  0  0
   -1.7159   -0.1956   -0.5140 C   0  0  0  0  0  0  0  0  0  0  0  0
   -2.7871   -0.7684    0.2080 C   0  0  0  0  0  0  0  0  0  0  0  0
   -2.9568   -1.5205    1.4086 C   0  0  0  0  0  0  0  0  0  0  0  0
   -4.3023   -1.7835    1.5610 C   0  0  0  0  0  0  0  0  0  0  0  0
   -4.9568   -1.2270    0.4932 N   0  0  0  0  0  0  0  0  0  0  0  0
   -4.0544   -0.6226   -0.3381 C   0  0  0  0  0  0  0  0  0  0  0  0
   -4.3793   -0.0073   -1.4828 N   0  0  0  0  0  0  0  0  0  0  0  0
   -3.2898    0.4754   -2.0998 C   0  0  0  0  0  0  0  0  0  0  0  0
   -2.0080    0.4098   -1.6943 N   0  0  0  0  0  0  0  0  0  0  0  0
    3.7842    0.6248    0.9628 C   0  0  0  0  0  0  0  0  0  0  0  0
    4.1496   -0.1696    1.8350 O   0  0  0  0  0  0  0  0  0  0  0  0
    4.8167    1.3010    0.0911 C   0  0  0  0  0  0  0  0  0  0  0  0
    5.1258    2.6326    0.6075 C   0  0  0  0  0  0  0  0  0  0  0  0
    5.3689    3.7042    0.9823 N   0  0  0  0  0  0  0  0  0  0  0  0
   -2.2514    1.8793    1.9024 H   0  0  0  0  0  0  0  0  0  0  0  0
   -2.0810    2.3782    0.2035 H   0  0  0  0  0  0  0  0  0  0  0  0
   -1.6356    3.4826    1.4915 H   0  0  0  0  0  0  0  0  0  0  0  0
    0.2017    2.2193    2.1867 H   0  0  0  0  0  0  0  0  0  0  0  0
    1.0271    3.5478    0.5621 H   0  0  0  0  0  0  0  0  0  0  0  0
    0.0966    2.8435   -0.7439 H   0  0  0  0  0  0  0  0  0  0  0  0
    2.6627    2.4628   -0.6626 H   0  0  0  0  0  0  0  0  0  0  0  0
    1.6449    1.1258   -1.1392 H   0  0  0  0  0  0  0  0  0  0  0  0
    1.6262    0.4240    2.5982 H   0  0  0  0  0  0  0  0  0  0  0  0
    1.7429   -0.9330    1.5053 H   0  0  0  0  0  0  0  0  0  0  0  0
   -0.6259   -0.1033    1.9609 H   0  0  0  0  0  0  0  0  0  0  0  0
   -0.1092   -2.2860    0.3601 H   0  0  0  0  0  0  0  0  0  0  0  0
   -0.2470   -1.9738   -1.3882 H   0  0  0  0  0  0  0  0  0  0  0  0
    1.2328   -1.5644   -0.5563 H   0  0  0  0  0  0  0  0  0  0  0  0
   -2.1793   -1.8410    2.0887 H   0  0  0  0  0  0  0  0  0  0  0  0
   -4.8463   -2.3184    2.3284 H   0  0  0  0  0  0  0  0  0  0  0  0
   -5.9505   -1.2552    0.3153 H   0  0  0  0  0  0  0  0  0  0  0  0
   -3.4610    0.9828   -3.0441 H   0  0  0  0  0  0  0  0  0  0  0  0
    5.7198    0.6791    0.0972 H   0  0  0  0  0  0  0  0  0  0  0  0
    4.4833    1.3288   -0.9501 H   0  0  0  0  0  0  0  0  0  0  0  0
  1  2  1  0
  2  3  1  0
  3  4  1  0
  4  5  1  0
  5  6  1  0
  6  7  1  0
  7  8  1  0
  8  9  1  0
  8 10  1  0
 10 11  2  0
 11 12  1  0
 12 13  2  0
 13 14  1  0
 14 15  1  0
 15 16  2  0
 16 17  1  0
 17 18  2  0
  5 19  1  0
 19 20  2  0
 19 21  1  0
 21 22  1  0
 22 23  3  0
  7  2  1  0
 18 10  1  0
 15 11  1  0
  1 24  1  0
  1 25  1  0
  1 26  1  0
  2 27  1  1
  3 28  1  0
  3 29  1  0
  4 30  1  0
  4 31  1  0
  6 32  1  0
  6 33  1  0
  7 34  1  1
  9 35  1  0
  9 36  1  0
  9 37  1  0
 12 38  1  0
 13 39  1  0
 14 40  1  0
 17 41  1  0
 21 42  1  0
 21 43  1  0
M  END
>  <energy_abs>  (118) 
19.075638099482962

>  <SMILES>  (118) 
C[C@@H]1CCN(C[C@@H]1N(C)c2c3cc[nH]c3ncn2)C(=O)CC#N

>  <cluster_no>  (118) 
118

>  <fda_drugs_id>  (118) 
UJLAWZDWDVHWOW-YPMHNXCESA-N

>  <initial_conformation_id>  (118) 
148

>  <minimize_method>  (118) 
MMFF

$$$$

     RDKit          3D

 43 45  0  0  0  0  0  0  0  0999 V2000
    1.0841   -1.2424    1.9197 C   0  0  0  0  0  0  0  0  0  0  0  0
    1.2398   -1.3717    0.3988 C   0  0  2  0  0  0  0  0  0  0  0  0
    2.7281   -1.3914    0.0140 C   0  0  0  0  0  0  0  0  0  0  0  0
    3.4061   -0.0498    0.2912 C   0  0  0  0  0  0  0  0  0  0  0  0
    2.5725    1.0994   -0.0619 N   0  0  0  0  0  0  0  0  0  0  0  0
    1.4389    0.8335   -0.9553 C   0  0  0  0  0  0  0  0  0  0  0  0
    0.4955   -0.2939   -0.4455 C   0  0  2  0  0  0  0  0  0  0  0  0
   -0.7217    0.2185    0.2162 N   0  0  0  0  0  0  0  0  0  0  0  0
   -0.6749    1.4052    1.0499 C   0  0  0  0  0  0  0  0  0  0  0  0
   -1.9123   -0.4773    0.0265 C   0  0  0  0  0  0  0  0  0  0  0  0
   -3.2192   -0.0015    0.3149 C   0  0  0  0  0  0  0  0  0  0  0  0
   -3.8240    1.2037    0.7938 C   0  0  0  0  0  0  0  0  0  0  0  0
   -5.1898    1.0181    0.8461 C   0  0  0  0  0  0  0  0  0  0  0  0
   -5.4472   -0.2516    0.4078 N   0  0  0  0  0  0  0  0  0  0  0  0
   -4.2758   -0.8729    0.0739 C   0  0  0  0  0  0  0  0  0  0  0  0
   -4.2129   -2.1208   -0.4072 N   0  0  0  0  0  0  0  0  0  0  0  0
   -2.9485   -2.4727   -0.6644 C   0  0  0  0  0  0  0  0  0  0  0  0
   -1.8330   -1.7424   -0.4850 N   0  0  0  0  0  0  0  0  0  0  0  0
    2.9071    2.4230    0.2320 C   0  0  0  0  0  0  0  0  0  0  0  0
    2.2135    3.3630   -0.1548 O   0  0  0  0  0  0  0  0  0  0  0  0
    4.1488    2.6344    1.0774 C   0  0  0  0  0  0  0  0  0  0  0  0
    4.4737    4.0530    1.2503 C   0  0  0  0  0  0  0  0  0  0  0  0
    4.7933    5.1551    1.4277 N   0  0  0  0  0  0  0  0  0  0  0  0
    0.0421   -1.3817    2.2247 H   0  0  0  0  0  0  0  0  0  0  0  0
    1.6706   -2.0142    2.4306 H   0  0  0  0  0  0  0  0  0  0  0  0
    1.4218   -0.2709    2.2914 H   0  0  0  0  0  0  0  0  0  0  0  0
    0.8195   -2.3508    0.1317 H   0  0  0  0  0  0  0  0  0  0  0  0
    2.8133   -1.6261   -1.0553 H   0  0  0  0  0  0  0  0  0  0  0  0
    3.2599   -2.1901    0.5445 H   0  0  0  0  0  0  0  0  0  0  0  0
    3.6684    0.0249    1.3517 H   0  0  0  0  0  0  0  0  0  0  0  0
    4.3388    0.0187   -0.2800 H   0  0  0  0  0  0  0  0  0  0  0  0
    0.8740    1.7451   -1.1764 H   0  0  0  0  0  0  0  0  0  0  0  0
    1.8865    0.5234   -1.9094 H   0  0  0  0  0  0  0  0  0  0  0  0
    0.1870   -0.7821   -1.3822 H   0  0  0  0  0  0  0  0  0  0  0  0
   -1.2552    1.2729    1.9694 H   0  0  0  0  0  0  0  0  0  0  0  0
    0.3412    1.6341    1.3804 H   0  0  0  0  0  0  0  0  0  0  0  0
   -1.0450    2.2772    0.5015 H   0  0  0  0  0  0  0  0  0  0  0  0
   -3.3248    2.1223    1.0672 H   0  0  0  0  0  0  0  0  0  0  0  0
   -5.9920    1.6785    1.1478 H   0  0  0  0  0  0  0  0  0  0  0  0
   -6.3545   -0.6856    0.3204 H   0  0  0  0  0  0  0  0  0  0  0  0
   -2.8017   -3.4699   -1.0668 H   0  0  0  0  0  0  0  0  0  0  0  0
    4.9968    2.1329    0.5999 H   0  0  0  0  0  0  0  0  0  0  0  0
    3.9801    2.1817    2.0602 H   0  0  0  0  0  0  0  0  0  0  0  0
  1  2  1  0
  2  3  1  0
  3  4  1  0
  4  5  1  0
  5  6  1  0
  6  7  1  0
  7  8  1  0
  8  9  1  0
  8 10  1  0
 10 11  2  0
 11 12  1  0
 12 13  2  0
 13 14  1  0
 14 15  1  0
 15 16  2  0
 16 17  1  0
 17 18  2  0
  5 19  1  0
 19 20  2  0
 19 21  1  0
 21 22  1  0
 22 23  3  0
  7  2  1  0
 18 10  1  0
 15 11  1  0
  1 24  1  0
  1 25  1  0
  1 26  1  0
  2 27  1  6
  3 28  1  0
  3 29  1  0
  4 30  1  0
  4 31  1  0
  6 32  1  0
  6 33  1  0
  7 34  1  6
  9 35  1  0
  9 36  1  0
  9 37  1  0
 12 38  1  0
 13 39  1  0
 14 40  1  0
 17 41  1  0
 21 42  1  0
 21 43  1  0
M  END
>  <energy_abs>  (119) 
16.395708348059596

>  <SMILES>  (119) 
C[C@@H]1CCN(C[C@@H]1N(C)c2c3cc[nH]c3ncn2)C(=O)CC#N

>  <cluster_no>  (119) 
119

>  <fda_drugs_id>  (119) 
UJLAWZDWDVHWOW-YPMHNXCESA-N

>  <initial_conformation_id>  (119) 
143

>  <minimize_method>  (119) 
MMFF

$$$$

     RDKit          3D

 43 45  0  0  0  0  0  0  0  0999 V2000
    1.4044   -3.1334    0.5014 C   0  0  0  0  0  0  0  0  0  0  0  0
    1.9817   -1.9604   -0.2939 C   0  0  2  0  0  0  0  0  0  0  0  0
    2.8661   -1.0611    0.5901 C   0  0  0  0  0  0  0  0  0  0  0  0
    2.1177    0.1242    1.1857 C   0  0  0  0  0  0  0  0  0  0  0  0
    1.4445    0.9419    0.1755 N   0  0  0  0  0  0  0  0  0  0  0  0
    1.2946    0.3605   -1.1610 C   0  0  0  0  0  0  0  0  0  0  0  0
    0.9610   -1.1515   -1.1452 C   0  0  2  0  0  0  0  0  0  0  0  0
   -0.4593   -1.4829   -0.8568 N   0  0  0  0  0  0  0  0  0  0  0  0
   -1.2363   -2.0039   -1.9745 C   0  0  0  0  0  0  0  0  0  0  0  0
   -1.1671   -0.6958    0.0481 C   0  0  0  0  0  0  0  0  0  0  0  0
   -2.0804    0.3333   -0.2842 C   0  0  0  0  0  0  0  0  0  0  0  0
   -2.5566    0.9673   -1.4713 C   0  0  0  0  0  0  0  0  0  0  0  0
   -3.4513    1.9507   -1.1048 C   0  0  0  0  0  0  0  0  0  0  0  0
   -3.5282    1.9502    0.2623 N   0  0  0  0  0  0  0  0  0  0  0  0
   -2.7036    0.9852    0.7718 C   0  0  0  0  0  0  0  0  0  0  0  0
   -2.5514    0.7424    2.0808 N   0  0  0  0  0  0  0  0  0  0  0  0
   -1.6936   -0.2659    2.2866 C   0  0  0  0  0  0  0  0  0  0  0  0
   -0.9970   -0.9627    1.3705 N   0  0  0  0  0  0  0  0  0  0  0  0
    0.9415    2.2167    0.4059 C   0  0  0  0  0  0  0  0  0  0  0  0
    0.5100    2.9246   -0.5081 O   0  0  0  0  0  0  0  0  0  0  0  0
    0.9212    2.7334    1.8264 C   0  0  0  0  0  0  0  0  0  0  0  0
    2.1296    3.5069    2.1013 C   0  0  0  0  0  0  0  0  0  0  0  0
    3.0947    4.0987    2.3596 N   0  0  0  0  0  0  0  0  0  0  0  0
    2.2142   -3.7508    0.9066 H   0  0  0  0  0  0  0  0  0  0  0  0
    0.7931   -3.7818   -0.1346 H   0  0  0  0  0  0  0  0  0  0  0  0
    0.8020   -2.8000    1.3494 H   0  0  0  0  0  0  0  0  0  0  0  0
    2.6747   -2.4247   -1.0121 H   0  0  0  0  0  0  0  0  0  0  0  0
    3.6881   -0.6729   -0.0270 H   0  0  0  0  0  0  0  0  0  0  0  0
    3.3395   -1.6429    1.3897 H   0  0  0  0  0  0  0  0  0  0  0  0
    1.3748   -0.2196    1.9092 H   0  0  0  0  0  0  0  0  0  0  0  0
    2.8240    0.7587    1.7312 H   0  0  0  0  0  0  0  0  0  0  0  0
    2.2559    0.5144   -1.6682 H   0  0  0  0  0  0  0  0  0  0  0  0
    0.5477    0.9073   -1.7463 H   0  0  0  0  0  0  0  0  0  0  0  0
    1.1366   -1.4792   -2.1810 H   0  0  0  0  0  0  0  0  0  0  0  0
   -1.2823   -1.2903   -2.8027 H   0  0  0  0  0  0  0  0  0  0  0  0
   -2.2546   -2.2776   -1.6745 H   0  0  0  0  0  0  0  0  0  0  0  0
   -0.7645   -2.9176   -2.3535 H   0  0  0  0  0  0  0  0  0  0  0  0
   -2.2642    0.7474   -2.4882 H   0  0  0  0  0  0  0  0  0  0  0  0
   -4.0211    2.6565   -1.6946 H   0  0  0  0  0  0  0  0  0  0  0  0
   -4.0925    2.5648    0.8307 H   0  0  0  0  0  0  0  0  0  0  0  0
   -1.5311   -0.5521    3.3210 H   0  0  0  0  0  0  0  0  0  0  0  0
    0.7993    1.9170    2.5428 H   0  0  0  0  0  0  0  0  0  0  0  0
    0.0312    3.3638    1.9382 H   0  0  0  0  0  0  0  0  0  0  0  0
  1  2  1  0
  2  3  1  0
  3  4  1  0
  4  5  1  0
  5  6  1  0
  6  7  1  0
  7  8  1  0
  8  9  1  0
  8 10  1  0
 10 11  2  0
 11 12  1  0
 12 13  2  0
 13 14  1  0
 14 15  1  0
 15 16  2  0
 16 17  1  0
 17 18  2  0
  5 19  1  0
 19 20  2  0
 19 21  1  0
 21 22  1  0
 22 23  3  0
  7  2  1  0
 18 10  1  0
 15 11  1  0
  1 24  1  0
  1 25  1  0
  1 26  1  0
  2 27  1  6
  3 28  1  0
  3 29  1  0
  4 30  1  0
  4 31  1  0
  6 32  1  0
  6 33  1  0
  7 34  1  6
  9 35  1  0
  9 36  1  0
  9 37  1  0
 12 38  1  0
 13 39  1  0
 14 40  1  0
 17 41  1  0
 21 42  1  0
 21 43  1  0
M  END
>  <energy_abs>  (120) 
19.643057213734526

>  <SMILES>  (120) 
C[C@@H]1CCN(C[C@@H]1N(C)c2c3cc[nH]c3ncn2)C(=O)CC#N

>  <cluster_no>  (120) 
120

>  <fda_drugs_id>  (120) 
UJLAWZDWDVHWOW-YPMHNXCESA-N

>  <initial_conformation_id>  (120) 
140

>  <minimize_method>  (120) 
MMFF

$$$$

     RDKit          3D

 43 45  0  0  0  0  0  0  0  0999 V2000
    1.0295   -2.8934   -1.1857 C   0  0  0  0  0  0  0  0  0  0  0  0
    1.5284   -1.4480   -1.1990 C   0  0  2  0  0  0  0  0  0  0  0  0
    2.8729   -1.3177   -0.4676 C   0  0  0  0  0  0  0  0  0  0  0  0
    3.3665    0.1236   -0.3991 C   0  0  0  0  0  0  0  0  0  0  0  0
    2.3404    1.0316    0.1056 N   0  0  0  0  0  0  0  0  0  0  0  0
    1.0657    0.9946   -0.6209 C   0  0  0  0  0  0  0  0  0  0  0  0
    0.4576   -0.4254   -0.7363 C   0  0  2  0  0  0  0  0  0  0  0  0
   -0.3059   -0.8518    0.4705 N   0  0  0  0  0  0  0  0  0  0  0  0
    0.3673   -0.9183    1.7658 C   0  0  0  0  0  0  0  0  0  0  0  0
   -1.5327   -0.1574    0.5748 C   0  0  0  0  0  0  0  0  0  0  0  0
   -2.6457   -0.4577   -0.2372 C   0  0  0  0  0  0  0  0  0  0  0  0
   -2.9562   -1.4036   -1.2574 C   0  0  0  0  0  0  0  0  0  0  0  0
   -4.2542   -1.1760   -1.6648 C   0  0  0  0  0  0  0  0  0  0  0  0
   -4.7465   -0.1343   -0.9206 N   0  0  0  0  0  0  0  0  0  0  0  0
   -3.7871    0.3059   -0.0501 C   0  0  0  0  0  0  0  0  0  0  0  0
   -3.9574    1.3050    0.8260 N   0  0  0  0  0  0  0  0  0  0  0  0
   -2.8517    1.4994    1.5607 C   0  0  0  0  0  0  0  0  0  0  0  0
   -1.6727    0.8491    1.4810 N   0  0  0  0  0  0  0  0  0  0  0  0
    2.7392    2.0887    0.9301 C   0  0  0  0  0  0  0  0  0  0  0  0
    3.9116    2.2146    1.2850 O   0  0  0  0  0  0  0  0  0  0  0  0
    1.6616    3.0597    1.3747 C   0  0  0  0  0  0  0  0  0  0  0  0
    2.1482    4.0196    2.3701 C   0  0  0  0  0  0  0  0  0  0  0  0
    2.4633    4.8101    3.1605 N   0  0  0  0  0  0  0  0  0  0  0  0
    0.0978   -2.9885   -1.7520 H   0  0  0  0  0  0  0  0  0  0  0  0
    1.7673   -3.5579   -1.6484 H   0  0  0  0  0  0  0  0  0  0  0  0
    0.8517   -3.2556   -0.1684 H   0  0  0  0  0  0  0  0  0  0  0  0
    1.7392   -1.2049   -2.2516 H   0  0  0  0  0  0  0  0  0  0  0  0
    2.8066   -1.7237    0.5451 H   0  0  0  0  0  0  0  0  0  0  0  0
    3.6287   -1.9253   -0.9812 H   0  0  0  0  0  0  0  0  0  0  0  0
    3.6507    0.4775   -1.3977 H   0  0  0  0  0  0  0  0  0  0  0  0
    4.2663    0.1622    0.2236 H   0  0  0  0  0  0  0  0  0  0  0  0
    0.3421    1.6913   -0.1963 H   0  0  0  0  0  0  0  0  0  0  0  0
    1.2872    1.3700   -1.6288 H   0  0  0  0  0  0  0  0  0  0  0  0
   -0.2582   -0.3777   -1.5695 H   0  0  0  0  0  0  0  0  0  0  0  0
    0.8074    0.0355    2.0689 H   0  0  0  0  0  0  0  0  0  0  0  0
   -0.3291   -1.2375    2.5524 H   0  0  0  0  0  0  0  0  0  0  0  0
    1.1489   -1.6789    1.7559 H   0  0  0  0  0  0  0  0  0  0  0  0
   -2.2974   -2.1714   -1.6407 H   0  0  0  0  0  0  0  0  0  0  0  0
   -4.8696   -1.6685   -2.4062 H   0  0  0  0  0  0  0  0  0  0  0  0
   -5.6754    0.2577   -0.9773 H   0  0  0  0  0  0  0  0  0  0  0  0
   -2.9112    2.2821    2.3113 H   0  0  0  0  0  0  0  0  0  0  0  0
    0.8307    2.4960    1.8103 H   0  0  0  0  0  0  0  0  0  0  0  0
    1.3019    3.6062    0.4964 H   0  0  0  0  0  0  0  0  0  0  0  0
  1  2  1  0
  2  3  1  0
  3  4  1  0
  4  5  1  0
  5  6  1  0
  6  7  1  0
  7  8  1  0
  8  9  1  0
  8 10  1  0
 10 11  2  0
 11 12  1  0
 12 13  2  0
 13 14  1  0
 14 15  1  0
 15 16  2  0
 16 17  1  0
 17 18  2  0
  5 19  1  0
 19 20  2  0
 19 21  1  0
 21 22  1  0
 22 23  3  0
  7  2  1  0
 18 10  1  0
 15 11  1  0
  1 24  1  0
  1 25  1  0
  1 26  1  0
  2 27  1  6
  3 28  1  0
  3 29  1  0
  4 30  1  0
  4 31  1  0
  6 32  1  0
  6 33  1  0
  7 34  1  6
  9 35  1  0
  9 36  1  0
  9 37  1  0
 12 38  1  0
 13 39  1  0
 14 40  1  0
 17 41  1  0
 21 42  1  0
 21 43  1  0
M  END
>  <energy_abs>  (121) 
8.097764343611455

>  <SMILES>  (121) 
C[C@@H]1CCN(C[C@@H]1N(C)c2c3cc[nH]c3ncn2)C(=O)CC#N

>  <cluster_no>  (121) 
121

>  <fda_drugs_id>  (121) 
UJLAWZDWDVHWOW-YPMHNXCESA-N

>  <initial_conformation_id>  (121) 
137

>  <minimize_method>  (121) 
MMFF

$$$$

     RDKit          3D

 43 45  0  0  0  0  0  0  0  0999 V2000
    0.4203   -2.5159    0.6148 C   0  0  0  0  0  0  0  0  0  0  0  0
    1.4302   -1.5684   -0.0368 C   0  0  2  0  0  0  0  0  0  0  0  0
    2.6413   -1.4033    0.9123 C   0  0  0  0  0  0  0  0  0  0  0  0
    3.4173   -0.1075    0.6785 C   0  0  0  0  0  0  0  0  0  0  0  0
    2.5709    1.0782    0.8385 N   0  0  0  0  0  0  0  0  0  0  0  0
    1.1255    0.8989    0.5937 C   0  0  0  0  0  0  0  0  0  0  0  0
    0.8733   -0.1869   -0.4733 C   0  0  2  0  0  0  0  0  0  0  0  0
   -0.4762   -0.2273   -1.0817 N   0  0  0  0  0  0  0  0  0  0  0  0
   -0.5422   -0.6882   -2.4615 C   0  0  0  0  0  0  0  0  0  0  0  0
   -1.6405   -0.1667   -0.3197 C   0  0  0  0  0  0  0  0  0  0  0  0
   -2.9727   -0.3884   -0.7807 C   0  0  0  0  0  0  0  0  0  0  0  0
   -3.6332   -0.7353   -2.0069 C   0  0  0  0  0  0  0  0  0  0  0  0
   -4.9927   -0.7877   -1.7775 C   0  0  0  0  0  0  0  0  0  0  0  0
   -5.1950   -0.4993   -0.4553 N   0  0  0  0  0  0  0  0  0  0  0  0
   -3.9949   -0.2626    0.1576 C   0  0  0  0  0  0  0  0  0  0  0  0
   -3.8821    0.0390    1.4581 N   0  0  0  0  0  0  0  0  0  0  0  0
   -2.6055    0.2306    1.7973 C   0  0  0  0  0  0  0  0  0  0  0  0
   -1.5202    0.1496    1.0044 N   0  0  0  0  0  0  0  0  0  0  0  0
    3.1765    2.2874    1.1803 C   0  0  0  0  0  0  0  0  0  0  0  0
    4.4017    2.3838    1.2640 O   0  0  0  0  0  0  0  0  0  0  0  0
    2.2580    3.4680    1.4283 C   0  0  0  0  0  0  0  0  0  0  0  0
    2.9510    4.5938    2.0670 C   0  0  0  0  0  0  0  0  0  0  0  0
    3.4313    5.5266    2.5647 N   0  0  0  0  0  0  0  0  0  0  0  0
   -0.4039   -2.7622   -0.0631 H   0  0  0  0  0  0  0  0  0  0  0  0
    0.0024   -2.0858    1.5313 H   0  0  0  0  0  0  0  0  0  0  0  0
    0.9041   -3.4618    0.8857 H   0  0  0  0  0  0  0  0  0  0  0  0
    1.7868   -2.0695   -0.9471 H   0  0  0  0  0  0  0  0  0  0  0  0
    3.3125   -2.2633    0.7994 H   0  0  0  0  0  0  0  0  0  0  0  0
    2.3006   -1.4156    1.9569 H   0  0  0  0  0  0  0  0  0  0  0  0
    3.8296   -0.0839   -0.3375 H   0  0  0  0  0  0  0  0  0  0  0  0
    4.2610   -0.0537    1.3761 H   0  0  0  0  0  0  0  0  0  0  0  0
    0.7081    0.6280    1.5681 H   0  0  0  0  0  0  0  0  0  0  0  0
    0.6791    1.8460    0.2772 H   0  0  0  0  0  0  0  0  0  0  0  0
    1.5344    0.1301   -1.2956 H   0  0  0  0  0  0  0  0  0  0  0  0
   -1.1462   -0.0053   -3.0694 H   0  0  0  0  0  0  0  0  0  0  0  0
    0.4489   -0.7099   -2.9337 H   0  0  0  0  0  0  0  0  0  0  0  0
   -0.9393   -1.7088   -2.5183 H   0  0  0  0  0  0  0  0  0  0  0  0
   -3.1823   -0.9300   -2.9707 H   0  0  0  0  0  0  0  0  0  0  0  0
   -5.8232   -1.0072   -2.4367 H   0  0  0  0  0  0  0  0  0  0  0  0
   -6.0842   -0.4587    0.0245 H   0  0  0  0  0  0  0  0  0  0  0  0
   -2.4177    0.4853    2.8376 H   0  0  0  0  0  0  0  0  0  0  0  0
    1.4322    3.1521    2.0739 H   0  0  0  0  0  0  0  0  0  0  0  0
    1.8481    3.7949    0.4643 H   0  0  0  0  0  0  0  0  0  0  0  0
  1  2  1  0
  2  3  1  0
  3  4  1  0
  4  5  1  0
  5  6  1  0
  6  7  1  0
  7  8  1  0
  8  9  1  0
  8 10  1  0
 10 11  2  0
 11 12  1  0
 12 13  2  0
 13 14  1  0
 14 15  1  0
 15 16  2  0
 16 17  1  0
 17 18  2  0
  5 19  1  0
 19 20  2  0
 19 21  1  0
 21 22  1  0
 22 23  3  0
  7  2  1  0
 18 10  1  0
 15 11  1  0
  1 24  1  0
  1 25  1  0
  1 26  1  0
  2 27  1  6
  3 28  1  0
  3 29  1  0
  4 30  1  0
  4 31  1  0
  6 32  1  0
  6 33  1  0
  7 34  1  6
  9 35  1  0
  9 36  1  0
  9 37  1  0
 12 38  1  0
 13 39  1  0
 14 40  1  0
 17 41  1  0
 21 42  1  0
 21 43  1  0
M  END
>  <energy_abs>  (122) 
16.3288345048208

>  <SMILES>  (122) 
C[C@@H]1CCN(C[C@@H]1N(C)c2c3cc[nH]c3ncn2)C(=O)CC#N

>  <cluster_no>  (122) 
122

>  <fda_drugs_id>  (122) 
UJLAWZDWDVHWOW-YPMHNXCESA-N

>  <initial_conformation_id>  (122) 
135

>  <minimize_method>  (122) 
MMFF

$$$$

     RDKit          3D

 43 45  0  0  0  0  0  0  0  0999 V2000
    0.4763   -2.4551    1.7091 C   0  0  0  0  0  0  0  0  0  0  0  0
    1.3816   -1.3408    1.1838 C   0  0  2  0  0  0  0  0  0  0  0  0
    2.3906   -0.8965    2.2503 C   0  0  0  0  0  0  0  0  0  0  0  0
    3.4270    0.0546    1.6522 C   0  0  0  0  0  0  0  0  0  0  0  0
    2.8553    1.0835    0.7852 N   0  0  0  0  0  0  0  0  0  0  0  0
    1.3963    1.2222    0.8125 C   0  0  0  0  0  0  0  0  0  0  0  0
    0.6591   -0.1192    0.5432 C   0  0  2  0  0  0  0  0  0  0  0  0
   -0.7682   -0.0029    0.9049 N   0  0  0  0  0  0  0  0  0  0  0  0
   -1.1584    0.4068    2.2412 C   0  0  0  0  0  0  0  0  0  0  0  0
   -1.7290   -0.3160   -0.0533 C   0  0  0  0  0  0  0  0  0  0  0  0
   -3.1194   -0.0298    0.0231 C   0  0  0  0  0  0  0  0  0  0  0  0
   -4.0175    0.6290    0.9220 C   0  0  0  0  0  0  0  0  0  0  0  0
   -5.2907    0.5671    0.3952 C   0  0  0  0  0  0  0  0  0  0  0  0
   -5.2082   -0.0979   -0.7968 N   0  0  0  0  0  0  0  0  0  0  0  0
   -3.9106   -0.4542   -1.0393 C   0  0  0  0  0  0  0  0  0  0  0  0
   -3.5193   -1.1052   -2.1415 N   0  0  0  0  0  0  0  0  0  0  0  0
   -2.1997   -1.3182   -2.1304 C   0  0  0  0  0  0  0  0  0  0  0  0
   -1.3138   -0.9645   -1.1818 N   0  0  0  0  0  0  0  0  0  0  0  0
    3.7422    1.9927    0.2177 C   0  0  0  0  0  0  0  0  0  0  0  0
    4.9622    1.8795    0.3697 O   0  0  0  0  0  0  0  0  0  0  0  0
    3.2003    3.1252   -0.6241 C   0  0  0  0  0  0  0  0  0  0  0  0
    2.7068    4.2043    0.2288 C   0  0  0  0  0  0  0  0  0  0  0  0
    2.2791    5.0537    0.8946 N   0  0  0  0  0  0  0  0  0  0  0  0
    1.0763   -3.3221    2.0077 H   0  0  0  0  0  0  0  0  0  0  0  0
   -0.2216   -2.7948    0.9378 H   0  0  0  0  0  0  0  0  0  0  0  0
   -0.0951   -2.1409    2.5872 H   0  0  0  0  0  0  0  0  0  0  0  0
    1.9749   -1.7999    0.3782 H   0  0  0  0  0  0  0  0  0  0  0  0
    1.8687   -0.4028    3.0785 H   0  0  0  0  0  0  0  0  0  0  0  0
    2.9080   -1.7624    2.6805 H   0  0  0  0  0  0  0  0  0  0  0  0
    4.1538   -0.5115    1.0564 H   0  0  0  0  0  0  0  0  0  0  0  0
    3.9839    0.5490    2.4572 H   0  0  0  0  0  0  0  0  0  0  0  0
    1.0465    1.9613    0.0881 H   0  0  0  0  0  0  0  0  0  0  0  0
    1.1539    1.6331    1.7992 H   0  0  0  0  0  0  0  0  0  0  0  0
    0.7677   -0.2615   -0.5407 H   0  0  0  0  0  0  0  0  0  0  0  0
   -1.9369   -0.2459    2.6506 H   0  0  0  0  0  0  0  0  0  0  0  0
   -1.5054    1.4450    2.2402 H   0  0  0  0  0  0  0  0  0  0  0  0
   -0.3222    0.3498    2.9443 H   0  0  0  0  0  0  0  0  0  0  0  0
   -3.7735    1.1096    1.8583 H   0  0  0  0  0  0  0  0  0  0  0  0
   -6.2376    0.9409    0.7618 H   0  0  0  0  0  0  0  0  0  0  0  0
   -5.9705   -0.3004   -1.4273 H   0  0  0  0  0  0  0  0  0  0  0  0
   -1.7908   -1.8395   -2.9901 H   0  0  0  0  0  0  0  0  0  0  0  0
    4.0158    3.4946   -1.2573 H   0  0  0  0  0  0  0  0  0  0  0  0
    2.4340    2.7547   -1.3110 H   0  0  0  0  0  0  0  0  0  0  0  0
  1  2  1  0
  2  3  1  0
  3  4  1  0
  4  5  1  0
  5  6  1  0
  6  7  1  0
  7  8  1  0
  8  9  1  0
  8 10  1  0
 10 11  2  0
 11 12  1  0
 12 13  2  0
 13 14  1  0
 14 15  1  0
 15 16  2  0
 16 17  1  0
 17 18  2  0
  5 19  1  0
 19 20  2  0
 19 21  1  0
 21 22  1  0
 22 23  3  0
  7  2  1  0
 18 10  1  0
 15 11  1  0
  1 24  1  0
  1 25  1  0
  1 26  1  0
  2 27  1  6
  3 28  1  0
  3 29  1  0
  4 30  1  0
  4 31  1  0
  6 32  1  0
  6 33  1  0
  7 34  1  6
  9 35  1  0
  9 36  1  0
  9 37  1  0
 12 38  1  0
 13 39  1  0
 14 40  1  0
 17 41  1  0
 21 42  1  0
 21 43  1  0
M  END
>  <energy_abs>  (123) 
16.6253930042472

>  <SMILES>  (123) 
C[C@@H]1CCN(C[C@@H]1N(C)c2c3cc[nH]c3ncn2)C(=O)CC#N

>  <cluster_no>  (123) 
123

>  <fda_drugs_id>  (123) 
UJLAWZDWDVHWOW-YPMHNXCESA-N

>  <initial_conformation_id>  (123) 
133

>  <minimize_method>  (123) 
MMFF

$$$$

     RDKit          3D

 43 45  0  0  0  0  0  0  0  0999 V2000
    0.9553   -3.2449    2.2688 C   0  0  0  0  0  0  0  0  0  0  0  0
    1.6591   -2.0705    1.5879 C   0  0  2  0  0  0  0  0  0  0  0  0
    1.6826   -0.8316    2.4969 C   0  0  0  0  0  0  0  0  0  0  0  0
    2.2714    0.3979    1.8124 C   0  0  0  0  0  0  0  0  0  0  0  0
    1.7146    0.6239    0.4811 N   0  0  0  0  0  0  0  0  0  0  0  0
    1.7936   -0.5207   -0.4277 C   0  0  0  0  0  0  0  0  0  0  0  0
    1.1337   -1.7908    0.1567 C   0  0  2  0  0  0  0  0  0  0  0  0
   -0.3496   -1.8367    0.0332 N   0  0  0  0  0  0  0  0  0  0  0  0
   -0.8664   -2.5557   -1.1258 C   0  0  0  0  0  0  0  0  0  0  0  0
   -1.0844   -0.7060    0.3914 C   0  0  0  0  0  0  0  0  0  0  0  0
   -1.5523    0.3018   -0.4872 C   0  0  0  0  0  0  0  0  0  0  0  0
   -1.4725    0.5966   -1.8815 C   0  0  0  0  0  0  0  0  0  0  0  0
   -2.1063    1.8006   -2.1045 C   0  0  0  0  0  0  0  0  0  0  0  0
   -2.5641    2.2577   -0.8977 N   0  0  0  0  0  0  0  0  0  0  0  0
   -2.2484    1.3594    0.0848 C   0  0  0  0  0  0  0  0  0  0  0  0
   -2.5583    1.5218    1.3780 N   0  0  0  0  0  0  0  0  0  0  0  0
   -2.1245    0.4893    2.1119 C   0  0  0  0  0  0  0  0  0  0  0  0
   -1.4147   -0.5775    1.7031 N   0  0  0  0  0  0  0  0  0  0  0  0
    1.5192    1.8884   -0.0719 C   0  0  0  0  0  0  0  0  0  0  0  0
    1.6006    2.0802   -1.2860 O   0  0  0  0  0  0  0  0  0  0  0  0
    1.1845    3.0083    0.8920 C   0  0  0  0  0  0  0  0  0  0  0  0
    0.3683    4.0443    0.2499 C   0  0  0  0  0  0  0  0  0  0  0  0
   -0.2993    4.8825   -0.1997 N   0  0  0  0  0  0  0  0  0  0  0  0
    1.4577   -3.5006    3.2079 H   0  0  0  0  0  0  0  0  0  0  0  0
   -0.0882   -3.0150    2.5048 H   0  0  0  0  0  0  0  0  0  0  0  0
    0.9741   -4.1332    1.6288 H   0  0  0  0  0  0  0  0  0  0  0  0
    2.7114   -2.3696    1.4672 H   0  0  0  0  0  0  0  0  0  0  0  0
    2.2737   -1.0510    3.3952 H   0  0  0  0  0  0  0  0  0  0  0  0
    0.6807   -0.5983    2.8611 H   0  0  0  0  0  0  0  0  0  0  0  0
    3.3526    0.2651    1.6800 H   0  0  0  0  0  0  0  0  0  0  0  0
    2.1491    1.2729    2.4549 H   0  0  0  0  0  0  0  0  0  0  0  0
    1.3533   -0.2813   -1.4009 H   0  0  0  0  0  0  0  0  0  0  0  0
    2.8611   -0.7065   -0.6033 H   0  0  0  0  0  0  0  0  0  0  0  0
    1.5094   -2.6244   -0.4550 H   0  0  0  0  0  0  0  0  0  0  0  0
   -0.4884   -2.1394   -2.0645 H   0  0  0  0  0  0  0  0  0  0  0  0
   -0.5451   -3.6025   -1.0783 H   0  0  0  0  0  0  0  0  0  0  0  0
   -1.9624   -2.5655   -1.1485 H   0  0  0  0  0  0  0  0  0  0  0  0
   -0.9732    0.0157   -2.6438 H   0  0  0  0  0  0  0  0  0  0  0  0
   -2.2419    2.3836   -3.0059 H   0  0  0  0  0  0  0  0  0  0  0  0
   -3.0285    3.1393   -0.7295 H   0  0  0  0  0  0  0  0  0  0  0  0
   -2.3649    0.5196    3.1699 H   0  0  0  0  0  0  0  0  0  0  0  0
    0.6174    2.6109    1.7401 H   0  0  0  0  0  0  0  0  0  0  0  0
    2.1220    3.4337    1.2639 H   0  0  0  0  0  0  0  0  0  0  0  0
  1  2  1  0
  2  3  1  0
  3  4  1  0
  4  5  1  0
  5  6  1  0
  6  7  1  0
  7  8  1  0
  8  9  1  0
  8 10  1  0
 10 11  2  0
 11 12  1  0
 12 13  2  0
 13 14  1  0
 14 15  1  0
 15 16  2  0
 16 17  1  0
 17 18  2  0
  5 19  1  0
 19 20  2  0
 19 21  1  0
 21 22  1  0
 22 23  3  0
  7  2  1  0
 18 10  1  0
 15 11  1  0
  1 24  1  0
  1 25  1  0
  1 26  1  0
  2 27  1  6
  3 28  1  0
  3 29  1  0
  4 30  1  0
  4 31  1  0
  6 32  1  0
  6 33  1  0
  7 34  1  6
  9 35  1  0
  9 36  1  0
  9 37  1  0
 12 38  1  0
 13 39  1  0
 14 40  1  0
 17 41  1  0
 21 42  1  0
 21 43  1  0
M  END
>  <energy_abs>  (124) 
13.39734706905575

>  <SMILES>  (124) 
C[C@@H]1CCN(C[C@@H]1N(C)c2c3cc[nH]c3ncn2)C(=O)CC#N

>  <cluster_no>  (124) 
124

>  <fda_drugs_id>  (124) 
UJLAWZDWDVHWOW-YPMHNXCESA-N

>  <initial_conformation_id>  (124) 
132

>  <minimize_method>  (124) 
MMFF

$$$$

     RDKit          3D

 43 45  0  0  0  0  0  0  0  0999 V2000
    1.4914   -2.6088    0.2755 C   0  0  0  0  0  0  0  0  0  0  0  0
    1.7498   -1.1346   -0.0374 C   0  0  2  0  0  0  0  0  0  0  0  0
    2.8223   -0.5650    0.8978 C   0  0  0  0  0  0  0  0  0  0  0  0
    3.0811    0.9151    0.6526 C   0  0  0  0  0  0  0  0  0  0  0  0
    1.8540    1.7098    0.6512 N   0  0  0  0  0  0  0  0  0  0  0  0
    0.7975    1.2278   -0.2522 C   0  0  0  0  0  0  0  0  0  0  0  0
    0.4577   -0.2772   -0.1032 C   0  0  2  0  0  0  0  0  0  0  0  0
   -0.5053   -0.5769    0.9983 N   0  0  0  0  0  0  0  0  0  0  0  0
   -0.2486   -0.0173    2.3257 C   0  0  0  0  0  0  0  0  0  0  0  0
   -1.8372   -0.2939    0.5977 C   0  0  0  0  0  0  0  0  0  0  0  0
   -2.5597   -1.1086   -0.3015 C   0  0  0  0  0  0  0  0  0  0  0  0
   -2.3339   -2.3244   -1.0111 C   0  0  0  0  0  0  0  0  0  0  0  0
   -3.4663   -2.6064   -1.7464 C   0  0  0  0  0  0  0  0  0  0  0  0
   -4.3767   -1.6114   -1.5014 N   0  0  0  0  0  0  0  0  0  0  0  0
   -3.8469   -0.7052   -0.6243 C   0  0  0  0  0  0  0  0  0  0  0  0
   -4.4948    0.3773   -0.1739 N   0  0  0  0  0  0  0  0  0  0  0  0
   -3.7348    1.0710    0.6867 C   0  0  0  0  0  0  0  0  0  0  0  0
   -2.4792    0.7996    1.0929 N   0  0  0  0  0  0  0  0  0  0  0  0
    1.8427    3.0783    0.9431 C   0  0  0  0  0  0  0  0  0  0  0  0
    0.9540    3.8298    0.5342 O   0  0  0  0  0  0  0  0  0  0  0  0
    2.9343    3.6400    1.8262 C   0  0  0  0  0  0  0  0  0  0  0  0
    4.0963    4.0179    1.0255 C   0  0  0  0  0  0  0  0  0  0  0  0
    5.0445    4.2817    0.4100 N   0  0  0  0  0  0  0  0  0  0  0  0
    1.0790   -2.7469    1.2799 H   0  0  0  0  0  0  0  0  0  0  0  0
    0.7966   -3.0439   -0.4478 H   0  0  0  0  0  0  0  0  0  0  0  0
    2.4230   -3.1827    0.2191 H   0  0  0  0  0  0  0  0  0  0  0  0
    2.1855   -1.1036   -1.0475 H   0  0  0  0  0  0  0  0  0  0  0  0
    2.5490   -0.7213    1.9446 H   0  0  0  0  0  0  0  0  0  0  0  0
    3.7619   -1.1134    0.7533 H   0  0  0  0  0  0  0  0  0  0  0  0
    3.5603    1.0614   -0.3234 H   0  0  0  0  0  0  0  0  0  0  0  0
    3.7842    1.2729    1.4073 H   0  0  0  0  0  0  0  0  0  0  0  0
    1.1653    1.4120   -1.2705 H   0  0  0  0  0  0  0  0  0  0  0  0
   -0.1065    1.8349   -0.1352 H   0  0  0  0  0  0  0  0  0  0  0  0
   -0.0207   -0.5694   -1.0488 H   0  0  0  0  0  0  0  0  0  0  0  0
   -1.0191   -0.3392    3.0385 H   0  0  0  0  0  0  0  0  0  0  0  0
    0.6902   -0.3950    2.7312 H   0  0  0  0  0  0  0  0  0  0  0  0
   -0.2119    1.0772    2.3314 H   0  0  0  0  0  0  0  0  0  0  0  0
   -1.4395   -2.9298   -0.9774 H   0  0  0  0  0  0  0  0  0  0  0  0
   -3.7042   -3.4268   -2.4105 H   0  0  0  0  0  0  0  0  0  0  0  0
   -5.3074   -1.5398   -1.8862 H   0  0  0  0  0  0  0  0  0  0  0  0
   -4.1852    1.9640    1.1091 H   0  0  0  0  0  0  0  0  0  0  0  0
    3.1904    2.9277    2.6159 H   0  0  0  0  0  0  0  0  0  0  0  0
    2.5300    4.5204    2.3399 H   0  0  0  0  0  0  0  0  0  0  0  0
  1  2  1  0
  2  3  1  0
  3  4  1  0
  4  5  1  0
  5  6  1  0
  6  7  1  0
  7  8  1  0
  8  9  1  0
  8 10  1  0
 10 11  2  0
 11 12  1  0
 12 13  2  0
 13 14  1  0
 14 15  1  0
 15 16  2  0
 16 17  1  0
 17 18  2  0
  5 19  1  0
 19 20  2  0
 19 21  1  0
 21 22  1  0
 22 23  3  0
  7  2  1  0
 18 10  1  0
 15 11  1  0
  1 24  1  0
  1 25  1  0
  1 26  1  0
  2 27  1  6
  3 28  1  0
  3 29  1  0
  4 30  1  0
  4 31  1  0
  6 32  1  0
  6 33  1  0
  7 34  1  6
  9 35  1  0
  9 36  1  0
  9 37  1  0
 12 38  1  0
 13 39  1  0
 14 40  1  0
 17 41  1  0
 21 42  1  0
 21 43  1  0
M  END
>  <energy_abs>  (125) 
9.939648421214036

>  <SMILES>  (125) 
C[C@@H]1CCN(C[C@@H]1N(C)c2c3cc[nH]c3ncn2)C(=O)CC#N

>  <cluster_no>  (125) 
125

>  <fda_drugs_id>  (125) 
UJLAWZDWDVHWOW-YPMHNXCESA-N

>  <initial_conformation_id>  (125) 
130

>  <minimize_method>  (125) 
MMFF

$$$$

     RDKit          3D

 43 45  0  0  0  0  0  0  0  0999 V2000
    0.8461   -1.9038   -1.3608 C   0  0  0  0  0  0  0  0  0  0  0  0
    1.5823   -0.6870   -0.7928 C   0  0  2  0  0  0  0  0  0  0  0  0
    2.4094   -1.0752    0.4392 C   0  0  0  0  0  0  0  0  0  0  0  0
    3.2353    0.1082    0.9405 C   0  0  0  0  0  0  0  0  0  0  0  0
    2.4420    1.3207    1.1645 N   0  0  0  0  0  0  0  0  0  0  0  0
    1.4926    1.6837    0.0917 C   0  0  0  0  0  0  0  0  0  0  0  0
    0.6457    0.5060   -0.4609 C   0  0  2  0  0  0  0  0  0  0  0  0
   -0.4527    0.0467    0.4336 N   0  0  0  0  0  0  0  0  0  0  0  0
   -0.5734    0.5649    1.7995 C   0  0  0  0  0  0  0  0  0  0  0  0
   -1.7194    0.0117   -0.1848 C   0  0  0  0  0  0  0  0  0  0  0  0
   -2.6499   -1.0149    0.0883 C   0  0  0  0  0  0  0  0  0  0  0  0
   -2.6843   -2.1855    0.9021 C   0  0  0  0  0  0  0  0  0  0  0  0
   -3.9087   -2.7961    0.7090 C   0  0  0  0  0  0  0  0  0  0  0  0
   -4.6136   -2.0418   -0.1977 N   0  0  0  0  0  0  0  0  0  0  0  0
   -3.8635   -0.9616   -0.5816 C   0  0  0  0  0  0  0  0  0  0  0  0
   -4.2600   -0.0342   -1.4648 N   0  0  0  0  0  0  0  0  0  0  0  0
   -3.3044    0.8951   -1.6513 C   0  0  0  0  0  0  0  0  0  0  0  0
   -2.0842    0.9727   -1.0732 N   0  0  0  0  0  0  0  0  0  0  0  0
    3.0094    2.2714    2.0229 C   0  0  0  0  0  0  0  0  0  0  0  0
    4.0575    2.0487    2.6408 O   0  0  0  0  0  0  0  0  0  0  0  0
    2.2882    3.5856    2.2434 C   0  0  0  0  0  0  0  0  0  0  0  0
    2.5953    4.5373    1.1750 C   0  0  0  0  0  0  0  0  0  0  0  0
    2.7526    5.2658    0.2835 N   0  0  0  0  0  0  0  0  0  0  0  0
    1.5639   -2.6533   -1.7129 H   0  0  0  0  0  0  0  0  0  0  0  0
    0.2153   -2.3864   -0.6075 H   0  0  0  0  0  0  0  0  0  0  0  0
    0.2174   -1.6199   -2.2121 H   0  0  0  0  0  0  0  0  0  0  0  0
    2.2806   -0.3469   -1.5719 H   0  0  0  0  0  0  0  0  0  0  0  0
    1.7514   -1.4304    1.2417 H   0  0  0  0  0  0  0  0  0  0  0  0
    3.0847   -1.9060    0.1967 H   0  0  0  0  0  0  0  0  0  0  0  0
    4.0156    0.3645    0.2123 H   0  0  0  0  0  0  0  0  0  0  0  0
    3.7438   -0.1812    1.8687 H   0  0  0  0  0  0  0  0  0  0  0  0
    2.1037    2.0937   -0.7221 H   0  0  0  0  0  0  0  0  0  0  0  0
    0.8326    2.4941    0.4146 H   0  0  0  0  0  0  0  0  0  0  0  0
    0.2391    0.8592   -1.4209 H   0  0  0  0  0  0  0  0  0  0  0  0
   -1.3658    0.0537    2.3572 H   0  0  0  0  0  0  0  0  0  0  0  0
   -0.7930    1.6416    1.8126 H   0  0  0  0  0  0  0  0  0  0  0  0
    0.3439    0.3758    2.3674 H   0  0  0  0  0  0  0  0  0  0  0  0
   -1.8902   -2.5406    1.5473 H   0  0  0  0  0  0  0  0  0  0  0  0
   -4.3334   -3.6994    1.1275 H   0  0  0  0  0  0  0  0  0  0  0  0
   -5.5401   -2.2374   -0.5501 H   0  0  0  0  0  0  0  0  0  0  0  0
   -3.5425    1.6876   -2.3542 H   0  0  0  0  0  0  0  0  0  0  0  0
    2.6106    3.9835    3.2174 H   0  0  0  0  0  0  0  0  0  0  0  0
    1.2096    3.4092    2.3331 H   0  0  0  0  0  0  0  0  0  0  0  0
  1  2  1  0
  2  3  1  0
  3  4  1  0
  4  5  1  0
  5  6  1  0
  6  7  1  0
  7  8  1  0
  8  9  1  0
  8 10  1  0
 10 11  2  0
 11 12  1  0
 12 13  2  0
 13 14  1  0
 14 15  1  0
 15 16  2  0
 16 17  1  0
 17 18  2  0
  5 19  1  0
 19 20  2  0
 19 21  1  0
 21 22  1  0
 22 23  3  0
  7  2  1  0
 18 10  1  0
 15 11  1  0
  1 24  1  0
  1 25  1  0
  1 26  1  0
  2 27  1  6
  3 28  1  0
  3 29  1  0
  4 30  1  0
  4 31  1  0
  6 32  1  0
  6 33  1  0
  7 34  1  6
  9 35  1  0
  9 36  1  0
  9 37  1  0
 12 38  1  0
 13 39  1  0
 14 40  1  0
 17 41  1  0
 21 42  1  0
 21 43  1  0
M  END
>  <energy_abs>  (126) 
10.482485255767834

>  <SMILES>  (126) 
C[C@@H]1CCN(C[C@@H]1N(C)c2c3cc[nH]c3ncn2)C(=O)CC#N

>  <cluster_no>  (126) 
126

>  <fda_drugs_id>  (126) 
UJLAWZDWDVHWOW-YPMHNXCESA-N

>  <initial_conformation_id>  (126) 
128

>  <minimize_method>  (126) 
MMFF

$$$$

     RDKit          3D

 43 45  0  0  0  0  0  0  0  0999 V2000
    1.6878   -0.6384    3.1884 C   0  0  0  0  0  0  0  0  0  0  0  0
    1.7481   -1.1364    1.7352 C   0  0  2  0  0  0  0  0  0  0  0  0
    3.0683   -0.6729    1.0761 C   0  0  0  0  0  0  0  0  0  0  0  0
    2.8912    0.3958   -0.0010 C   0  0  0  0  0  0  0  0  0  0  0  0
    1.8841    1.3758    0.3843 N   0  0  0  0  0  0  0  0  0  0  0  0
    0.5523    0.8458    0.7168 C   0  0  0  0  0  0  0  0  0  0  0  0
    0.5140   -0.7007    0.8956 C   0  0  2  0  0  0  0  0  0  0  0  0
   -0.7544   -1.1850    1.4969 N   0  0  0  0  0  0  0  0  0  0  0  0
   -0.8935   -2.6287    1.6870 C   0  0  0  0  0  0  0  0  0  0  0  0
   -1.8965   -0.6635    0.8586 C   0  0  0  0  0  0  0  0  0  0  0  0
   -2.3554   -1.0068   -0.4329 C   0  0  0  0  0  0  0  0  0  0  0  0
   -1.9533   -1.8785   -1.4882 C   0  0  0  0  0  0  0  0  0  0  0  0
   -2.8536   -1.7371   -2.5238 C   0  0  0  0  0  0  0  0  0  0  0  0
   -3.7866   -0.8093   -2.1385 N   0  0  0  0  0  0  0  0  0  0  0  0
   -3.4957   -0.3563   -0.8814 C   0  0  0  0  0  0  0  0  0  0  0  0
   -4.2135    0.5664   -0.2277 N   0  0  0  0  0  0  0  0  0  0  0  0
   -3.6858    0.8260    0.9791 C   0  0  0  0  0  0  0  0  0  0  0  0
   -2.5945    0.2755    1.5430 N   0  0  0  0  0  0  0  0  0  0  0  0
    2.0084    2.7615    0.2662 C   0  0  0  0  0  0  0  0  0  0  0  0
    1.0492    3.5061    0.4680 O   0  0  0  0  0  0  0  0  0  0  0  0
    3.3725    3.2983   -0.1139 C   0  0  0  0  0  0  0  0  0  0  0  0
    3.4165    4.7631   -0.1390 C   0  0  0  0  0  0  0  0  0  0  0  0
    3.5327    5.9178   -0.1823 N   0  0  0  0  0  0  0  0  0  0  0  0
    1.7381    0.4533    3.2485 H   0  0  0  0  0  0  0  0  0  0  0  0
    0.7713   -0.9644    3.6892 H   0  0  0  0  0  0  0  0  0  0  0  0
    2.5305   -1.0396    3.7625 H   0  0  0  0  0  0  0  0  0  0  0  0
    1.7831   -2.2322    1.7804 H   0  0  0  0  0  0  0  0  0  0  0  0
    3.5683   -1.5368    0.6203 H   0  0  0  0  0  0  0  0  0  0  0  0
    3.7608   -0.2981    1.8404 H   0  0  0  0  0  0  0  0  0  0  0  0
    2.5553   -0.0583   -0.9412 H   0  0  0  0  0  0  0  0  0  0  0  0
    3.8579    0.8585   -0.2102 H   0  0  0  0  0  0  0  0  0  0  0  0
    0.2034    1.3554    1.6238 H   0  0  0  0  0  0  0  0  0  0  0  0
   -0.1196    1.1486   -0.0959 H   0  0  0  0  0  0  0  0  0  0  0  0
    0.6229   -1.1600   -0.0973 H   0  0  0  0  0  0  0  0  0  0  0  0
   -1.9112   -2.9030    1.9921 H   0  0  0  0  0  0  0  0  0  0  0  0
   -0.2356   -2.9668    2.4940 H   0  0  0  0  0  0  0  0  0  0  0  0
   -0.6317   -3.1906    0.7844 H   0  0  0  0  0  0  0  0  0  0  0  0
   -1.0966   -2.5383   -1.4928 H   0  0  0  0  0  0  0  0  0  0  0  0
   -2.9111   -2.2106   -3.4951 H   0  0  0  0  0  0  0  0  0  0  0  0
   -4.5741   -0.4850   -2.6815 H   0  0  0  0  0  0  0  0  0  0  0  0
   -4.2003    1.5727    1.5762 H   0  0  0  0  0  0  0  0  0  0  0  0
    3.6328    2.9173   -1.1073 H   0  0  0  0  0  0  0  0  0  0  0  0
    4.1074    2.9337    0.6119 H   0  0  0  0  0  0  0  0  0  0  0  0
  1  2  1  0
  2  3  1  0
  3  4  1  0
  4  5  1  0
  5  6  1  0
  6  7  1  0
  7  8  1  0
  8  9  1  0
  8 10  1  0
 10 11  2  0
 11 12  1  0
 12 13  2  0
 13 14  1  0
 14 15  1  0
 15 16  2  0
 16 17  1  0
 17 18  2  0
  5 19  1  0
 19 20  2  0
 19 21  1  0
 21 22  1  0
 22 23  3  0
  7  2  1  0
 18 10  1  0
 15 11  1  0
  1 24  1  0
  1 25  1  0
  1 26  1  0
  2 27  1  1
  3 28  1  0
  3 29  1  0
  4 30  1  0
  4 31  1  0
  6 32  1  0
  6 33  1  0
  7 34  1  6
  9 35  1  0
  9 36  1  0
  9 37  1  0
 12 38  1  0
 13 39  1  0
 14 40  1  0
 17 41  1  0
 21 42  1  0
 21 43  1  0
M  END
>  <energy_abs>  (127) 
22.128405952373054

>  <SMILES>  (127) 
C[C@@H]1CCN(C[C@@H]1N(C)c2c3cc[nH]c3ncn2)C(=O)CC#N

>  <cluster_no>  (127) 
127

>  <fda_drugs_id>  (127) 
UJLAWZDWDVHWOW-YPMHNXCESA-N

>  <initial_conformation_id>  (127) 
123

>  <minimize_method>  (127) 
MMFF

$$$$

     RDKit          3D

 43 45  0  0  0  0  0  0  0  0999 V2000
    1.5150   -2.2188    1.7373 C   0  0  0  0  0  0  0  0  0  0  0  0
    1.8170   -0.7568    1.4019 C   0  0  2  0  0  0  0  0  0  0  0  0
    2.2000    0.0322    2.6595 C   0  0  0  0  0  0  0  0  0  0  0  0
    2.0184    1.5430    2.5483 C   0  0  0  0  0  0  0  0  0  0  0  0
    2.0097    2.0286    1.1760 N   0  0  0  0  0  0  0  0  0  0  0  0
    1.0549    1.3946    0.2528 C   0  0  0  0  0  0  0  0  0  0  0  0
    0.7246   -0.0927    0.5371 C   0  0  2  0  0  0  0  0  0  0  0  0
   -0.6523   -0.3440    1.0406 N   0  0  0  0  0  0  0  0  0  0  0  0
   -1.1332    0.3634    2.2228 C   0  0  0  0  0  0  0  0  0  0  0  0
   -1.6275   -0.3342    0.0194 C   0  0  0  0  0  0  0  0  0  0  0  0
   -2.8228   -1.0811    0.1019 C   0  0  0  0  0  0  0  0  0  0  0  0
   -3.4137   -1.9887    1.0302 C   0  0  0  0  0  0  0  0  0  0  0  0
   -4.6262   -2.3950    0.5134 C   0  0  0  0  0  0  0  0  0  0  0  0
   -4.7873   -1.7775   -0.7005 N   0  0  0  0  0  0  0  0  0  0  0  0
   -3.7007   -0.9900   -0.9671 C   0  0  0  0  0  0  0  0  0  0  0  0
   -3.5414   -0.2710   -2.0861 N   0  0  0  0  0  0  0  0  0  0  0  0
   -2.3678    0.3789   -2.0795 C   0  0  0  0  0  0  0  0  0  0  0  0
   -1.4230    0.3882   -1.1165 N   0  0  0  0  0  0  0  0  0  0  0  0
    2.5818    3.2786    0.9293 C   0  0  0  0  0  0  0  0  0  0  0  0
    3.1810    3.9087    1.8049 O   0  0  0  0  0  0  0  0  0  0  0  0
    2.4651    3.8712   -0.4588 C   0  0  0  0  0  0  0  0  0  0  0  0
    3.4919    3.3143   -1.3371 C   0  0  0  0  0  0  0  0  0  0  0  0
    4.2787    2.8664   -2.0638 N   0  0  0  0  0  0  0  0  0  0  0  0
    1.2968   -2.7896    0.8286 H   0  0  0  0  0  0  0  0  0  0  0  0
    2.3764   -2.6862    2.2263 H   0  0  0  0  0  0  0  0  0  0  0  0
    0.6585   -2.3114    2.4129 H   0  0  0  0  0  0  0  0  0  0  0  0
    2.7210   -0.7704    0.7733 H   0  0  0  0  0  0  0  0  0  0  0  0
    3.2569   -0.1773    2.8745 H   0  0  0  0  0  0  0  0  0  0  0  0
    1.6569   -0.3272    3.5417 H   0  0  0  0  0  0  0  0  0  0  0  0
    1.0718    1.8555    3.0016 H   0  0  0  0  0  0  0  0  0  0  0  0
    2.8034    2.0328    3.1354 H   0  0  0  0  0  0  0  0  0  0  0  0
    0.1584    2.0238    0.2397 H   0  0  0  0  0  0  0  0  0  0  0  0
    1.4886    1.4494   -0.7516 H   0  0  0  0  0  0  0  0  0  0  0  0
    0.7972   -0.6153   -0.4301 H   0  0  0  0  0  0  0  0  0  0  0  0
   -0.5028    0.1402    3.0857 H   0  0  0  0  0  0  0  0  0  0  0  0
   -1.1520    1.4475    2.0693 H   0  0  0  0  0  0  0  0  0  0  0  0
   -2.1423    0.0541    2.5164 H   0  0  0  0  0  0  0  0  0  0  0  0
   -2.9860   -2.3106    1.9708 H   0  0  0  0  0  0  0  0  0  0  0  0
   -5.3779   -3.0724    0.8965 H   0  0  0  0  0  0  0  0  0  0  0  0
   -5.5705   -1.8839   -1.3288 H   0  0  0  0  0  0  0  0  0  0  0  0
   -2.1506    0.9745   -2.9611 H   0  0  0  0  0  0  0  0  0  0  0  0
    2.5954    4.9565   -0.3721 H   0  0  0  0  0  0  0  0  0  0  0  0
    1.4600    3.7246   -0.8630 H   0  0  0  0  0  0  0  0  0  0  0  0
  1  2  1  0
  2  3  1  0
  3  4  1  0
  4  5  1  0
  5  6  1  0
  6  7  1  0
  7  8  1  0
  8  9  1  0
  8 10  1  0
 10 11  2  0
 11 12  1  0
 12 13  2  0
 13 14  1  0
 14 15  1  0
 15 16  2  0
 16 17  1  0
 17 18  2  0
  5 19  1  0
 19 20  2  0
 19 21  1  0
 21 22  1  0
 22 23  3  0
  7  2  1  0
 18 10  1  0
 15 11  1  0
  1 24  1  0
  1 25  1  0
  1 26  1  0
  2 27  1  6
  3 28  1  0
  3 29  1  0
  4 30  1  0
  4 31  1  0
  6 32  1  0
  6 33  1  0
  7 34  1  6
  9 35  1  0
  9 36  1  0
  9 37  1  0
 12 38  1  0
 13 39  1  0
 14 40  1  0
 17 41  1  0
 21 42  1  0
 21 43  1  0
M  END
>  <energy_abs>  (128) 
14.801873522801193

>  <SMILES>  (128) 
C[C@@H]1CCN(C[C@@H]1N(C)c2c3cc[nH]c3ncn2)C(=O)CC#N

>  <cluster_no>  (128) 
128

>  <fda_drugs_id>  (128) 
UJLAWZDWDVHWOW-YPMHNXCESA-N

>  <initial_conformation_id>  (128) 
120

>  <minimize_method>  (128) 
MMFF

$$$$

     RDKit          3D

 43 45  0  0  0  0  0  0  0  0999 V2000
    0.9140    1.1356    3.6927 C   0  0  0  0  0  0  0  0  0  0  0  0
    1.1844   -0.0545    2.7610 C   0  0  2  0  0  0  0  0  0  0  0  0
    2.6366   -0.0429    2.2621 C   0  0  0  0  0  0  0  0  0  0  0  0
    2.9168    1.0881    1.2801 C   0  0  0  0  0  0  0  0  0  0  0  0
    1.9634    1.1001    0.1708 N   0  0  0  0  0  0  0  0  0  0  0  0
    0.5405    1.0281    0.5520 C   0  0  0  0  0  0  0  0  0  0  0  0
    0.2184   -0.1277    1.5439 C   0  0  2  0  0  0  0  0  0  0  0  0
   -1.1967   -0.1366    2.0003 N   0  0  0  0  0  0  0  0  0  0  0  0
   -1.6061   -1.2557    2.8514 C   0  0  0  0  0  0  0  0  0  0  0  0
   -2.1295    0.0343    0.9599 C   0  0  0  0  0  0  0  0  0  0  0  0
   -2.4040   -0.8940   -0.0692 C   0  0  0  0  0  0  0  0  0  0  0  0
   -1.9478   -2.1885   -0.4580 C   0  0  0  0  0  0  0  0  0  0  0  0
   -2.6316   -2.5560   -1.5983 C   0  0  0  0  0  0  0  0  0  0  0  0
   -3.4839   -1.5311   -1.9192 N   0  0  0  0  0  0  0  0  0  0  0  0
   -3.3568   -0.5211   -1.0060 C   0  0  0  0  0  0  0  0  0  0  0  0
   -4.0506    0.6240   -1.0458 N   0  0  0  0  0  0  0  0  0  0  0  0
   -3.7053    1.4350   -0.0331 C   0  0  0  0  0  0  0  0  0  0  0  0
   -2.8059    1.2093    0.9430 N   0  0  0  0  0  0  0  0  0  0  0  0
    2.2489    1.6815   -1.0697 C   0  0  0  0  0  0  0  0  0  0  0  0
    1.3618    1.9908   -1.8695 O   0  0  0  0  0  0  0  0  0  0  0  0
    3.6945    1.8866   -1.4649 C   0  0  0  0  0  0  0  0  0  0  0  0
    4.2162    3.1272   -0.8970 C   0  0  0  0  0  0  0  0  0  0  0  0
    4.6649    4.0858   -0.4204 N   0  0  0  0  0  0  0  0  0  0  0  0
    0.9852    2.0970    3.1768 H   0  0  0  0  0  0  0  0  0  0  0  0
   -0.0832    1.0722    4.1389 H   0  0  0  0  0  0  0  0  0  0  0  0
    1.6362    1.1465    4.5165 H   0  0  0  0  0  0  0  0  0  0  0  0
    1.0663   -0.9650    3.3624 H   0  0  0  0  0  0  0  0  0  0  0  0
    3.3294    0.0258    3.1091 H   0  0  0  0  0  0  0  0  0  0  0  0
    2.8431   -1.0004    1.7659 H   0  0  0  0  0  0  0  0  0  0  0  0
    3.9392    0.9768    0.9128 H   0  0  0  0  0  0  0  0  0  0  0  0
    2.8604    2.0651    1.7733 H   0  0  0  0  0  0  0  0  0  0  0  0
   -0.0528    0.9027   -0.3597 H   0  0  0  0  0  0  0  0  0  0  0  0
    0.2638    2.0023    0.9735 H   0  0  0  0  0  0  0  0  0  0  0  0
    0.4279   -1.0728    1.0226 H   0  0  0  0  0  0  0  0  0  0  0  0
   -1.3280   -2.2236    2.4212 H   0  0  0  0  0  0  0  0  0  0  0  0
   -2.6874   -1.2494    3.0383 H   0  0  0  0  0  0  0  0  0  0  0  0
   -1.1304   -1.1780    3.8341 H   0  0  0  0  0  0  0  0  0  0  0  0
   -1.1967   -2.7867    0.0394 H   0  0  0  0  0  0  0  0  0  0  0  0
   -2.5835   -3.4486   -2.2079 H   0  0  0  0  0  0  0  0  0  0  0  0
   -4.1144   -1.4963   -2.7072 H   0  0  0  0  0  0  0  0  0  0  0  0
   -4.2138    2.3934    0.0062 H   0  0  0  0  0  0  0  0  0  0  0  0
    4.2933    1.0168   -1.1796 H   0  0  0  0  0  0  0  0  0  0  0  0
    3.7399    1.9310   -2.5597 H   0  0  0  0  0  0  0  0  0  0  0  0
  1  2  1  0
  2  3  1  0
  3  4  1  0
  4  5  1  0
  5  6  1  0
  6  7  1  0
  7  8  1  0
  8  9  1  0
  8 10  1  0
 10 11  2  0
 11 12  1  0
 12 13  2  0
 13 14  1  0
 14 15  1  0
 15 16  2  0
 16 17  1  0
 17 18  2  0
  5 19  1  0
 19 20  2  0
 19 21  1  0
 21 22  1  0
 22 23  3  0
  7  2  1  0
 18 10  1  0
 15 11  1  0
  1 24  1  0
  1 25  1  0
  1 26  1  0
  2 27  1  1
  3 28  1  0
  3 29  1  0
  4 30  1  0
  4 31  1  0
  6 32  1  0
  6 33  1  0
  7 34  1  6
  9 35  1  0
  9 36  1  0
  9 37  1  0
 12 38  1  0
 13 39  1  0
 14 40  1  0
 17 41  1  0
 21 42  1  0
 21 43  1  0
M  END
>  <energy_abs>  (129) 
15.719463365106392

>  <SMILES>  (129) 
C[C@@H]1CCN(C[C@@H]1N(C)c2c3cc[nH]c3ncn2)C(=O)CC#N

>  <cluster_no>  (129) 
129

>  <fda_drugs_id>  (129) 
UJLAWZDWDVHWOW-YPMHNXCESA-N

>  <initial_conformation_id>  (129) 
112

>  <minimize_method>  (129) 
MMFF

$$$$

     RDKit          3D

 43 45  0  0  0  0  0  0  0  0999 V2000
   -0.1561    0.0096    3.7386 C   0  0  0  0  0  0  0  0  0  0  0  0
    0.8732   -0.1711    2.6225 C   0  0  2  0  0  0  0  0  0  0  0  0
    1.9991    0.8614    2.7553 C   0  0  0  0  0  0  0  0  0  0  0  0
    3.0245    0.7481    1.6357 C   0  0  0  0  0  0  0  0  0  0  0  0
    2.4063    0.7501    0.3119 N   0  0  0  0  0  0  0  0  0  0  0  0
    1.3474   -0.2500    0.1108 C   0  0  0  0  0  0  0  0  0  0  0  0
    0.2464   -0.2383    1.2030 C   0  0  2  0  0  0  0  0  0  0  0  0
   -0.8199    0.7824    0.9822 N   0  0  0  0  0  0  0  0  0  0  0  0
   -0.4225    2.1630    0.6944 C   0  0  0  0  0  0  0  0  0  0  0  0
   -1.7576    0.3328    0.0170 C   0  0  0  0  0  0  0  0  0  0  0  0
   -2.7342   -0.6485    0.2944 C   0  0  0  0  0  0  0  0  0  0  0  0
   -3.1428   -1.4149    1.4248 C   0  0  0  0  0  0  0  0  0  0  0  0
   -4.1914   -2.2227    1.0365 C   0  0  0  0  0  0  0  0  0  0  0  0
   -4.4421   -1.9670   -0.2867 N   0  0  0  0  0  0  0  0  0  0  0  0
   -3.5756   -1.0134   -0.7462 C   0  0  0  0  0  0  0  0  0  0  0  0
   -3.5732   -0.5353   -1.9976 N   0  0  0  0  0  0  0  0  0  0  0  0
   -2.6268    0.4031   -2.1531 C   0  0  0  0  0  0  0  0  0  0  0  0
   -1.7463    0.8550   -1.2394 N   0  0  0  0  0  0  0  0  0  0  0  0
    3.0050    1.2903   -0.8263 C   0  0  0  0  0  0  0  0  0  0  0  0
    2.6592    0.9667   -1.9655 O   0  0  0  0  0  0  0  0  0  0  0  0
    4.1113    2.3075   -0.6571 C   0  0  0  0  0  0  0  0  0  0  0  0
    3.5793    3.5603   -0.1231 C   0  0  0  0  0  0  0  0  0  0  0  0
    3.1792    4.5494    0.3342 N   0  0  0  0  0  0  0  0  0  0  0  0
    0.3284   -0.0405    4.7200 H   0  0  0  0  0  0  0  0  0  0  0  0
   -0.6663    0.9756    3.6712 H   0  0  0  0  0  0  0  0  0  0  0  0
   -0.9080   -0.7833    3.7059 H   0  0  0  0  0  0  0  0  0  0  0  0
    1.3443   -1.1513    2.7912 H   0  0  0  0  0  0  0  0  0  0  0  0
    2.5117    0.7216    3.7156 H   0  0  0  0  0  0  0  0  0  0  0  0
    1.5950    1.8768    2.7822 H   0  0  0  0  0  0  0  0  0  0  0  0
    3.5828   -0.1918    1.7254 H   0  0  0  0  0  0  0  0  0  0  0  0
    3.7511    1.5553    1.7429 H   0  0  0  0  0  0  0  0  0  0  0  0
    1.8510   -1.2257    0.1215 H   0  0  0  0  0  0  0  0  0  0  0  0
    0.9003   -0.1435   -0.8828 H   0  0  0  0  0  0  0  0  0  0  0  0
   -0.2297   -1.2283    1.1569 H   0  0  0  0  0  0  0  0  0  0  0  0
    0.1433    2.5857    1.5247 H   0  0  0  0  0  0  0  0  0  0  0  0
   -1.3064    2.8055    0.5903 H   0  0  0  0  0  0  0  0  0  0  0  0
    0.1778    2.2566   -0.2165 H   0  0  0  0  0  0  0  0  0  0  0  0
   -2.7184   -1.3688    2.4174 H   0  0  0  0  0  0  0  0  0  0  0  0
   -4.7825   -2.9437    1.5854 H   0  0  0  0  0  0  0  0  0  0  0  0
   -5.1589   -2.3926   -0.8562 H   0  0  0  0  0  0  0  0  0  0  0  0
   -2.5587    0.8550   -3.1380 H   0  0  0  0  0  0  0  0  0  0  0  0
    4.5587    2.4892   -1.6417 H   0  0  0  0  0  0  0  0  0  0  0  0
    4.9103    1.8952   -0.0345 H   0  0  0  0  0  0  0  0  0  0  0  0
  1  2  1  0
  2  3  1  0
  3  4  1  0
  4  5  1  0
  5  6  1  0
  6  7  1  0
  7  8  1  0
  8  9  1  0
  8 10  1  0
 10 11  2  0
 11 12  1  0
 12 13  2  0
 13 14  1  0
 14 15  1  0
 15 16  2  0
 16 17  1  0
 17 18  2  0
  5 19  1  0
 19 20  2  0
 19 21  1  0
 21 22  1  0
 22 23  3  0
  7  2  1  0
 18 10  1  0
 15 11  1  0
  1 24  1  0
  1 25  1  0
  1 26  1  0
  2 27  1  1
  3 28  1  0
  3 29  1  0
  4 30  1  0
  4 31  1  0
  6 32  1  0
  6 33  1  0
  7 34  1  1
  9 35  1  0
  9 36  1  0
  9 37  1  0
 12 38  1  0
 13 39  1  0
 14 40  1  0
 17 41  1  0
 21 42  1  0
 21 43  1  0
M  END
>  <energy_abs>  (130) 
10.233712218429453

>  <SMILES>  (130) 
C[C@@H]1CCN(C[C@@H]1N(C)c2c3cc[nH]c3ncn2)C(=O)CC#N

>  <cluster_no>  (130) 
130

>  <fda_drugs_id>  (130) 
UJLAWZDWDVHWOW-YPMHNXCESA-N

>  <initial_conformation_id>  (130) 
109

>  <minimize_method>  (130) 
MMFF

$$$$

     RDKit          3D

 43 45  0  0  0  0  0  0  0  0999 V2000
    0.0337    1.1730    3.4418 C   0  0  0  0  0  0  0  0  0  0  0  0
    0.5079    0.1306    2.4255 C   0  0  2  0  0  0  0  0  0  0  0  0
    2.0091   -0.1587    2.6064 C   0  0  0  0  0  0  0  0  0  0  0  0
    2.8990    0.9927    2.1420 C   0  0  0  0  0  0  0  0  0  0  0  0
    2.5962    1.4252    0.7760 N   0  0  0  0  0  0  0  0  0  0  0  0
    1.1746    1.6609    0.4791 C   0  0  0  0  0  0  0  0  0  0  0  0
    0.2626    0.5009    0.9425 C   0  0  2  0  0  0  0  0  0  0  0  0
   -1.1615    0.7238    0.6139 N   0  0  0  0  0  0  0  0  0  0  0  0
   -1.8147    1.9891    0.8931 C   0  0  0  0  0  0  0  0  0  0  0  0
   -1.9402   -0.4003    0.3213 C   0  0  0  0  0  0  0  0  0  0  0  0
   -3.2920   -0.3961   -0.1201 C   0  0  0  0  0  0  0  0  0  0  0  0
   -4.2975    0.5695   -0.4446 C   0  0  0  0  0  0  0  0  0  0  0  0
   -5.4418   -0.0991   -0.8270 C   0  0  0  0  0  0  0  0  0  0  0  0
   -5.1753   -1.4386   -0.7581 N   0  0  0  0  0  0  0  0  0  0  0  0
   -3.8863   -1.6333   -0.3458 C   0  0  0  0  0  0  0  0  0  0  0  0
   -3.3340   -2.8442   -0.2029 N   0  0  0  0  0  0  0  0  0  0  0  0
   -2.0614   -2.7482    0.1944 C   0  0  0  0  0  0  0  0  0  0  0  0
   -1.3584   -1.6300    0.4495 N   0  0  0  0  0  0  0  0  0  0  0  0
    3.6353    2.0362    0.0596 C   0  0  0  0  0  0  0  0  0  0  0  0
    4.7723    2.1182    0.5247 O   0  0  0  0  0  0  0  0  0  0  0  0
    3.2927    2.5731   -1.3165 C   0  0  0  0  0  0  0  0  0  0  0  0
    4.4689    3.0770   -2.0316 C   0  0  0  0  0  0  0  0  0  0  0  0
    5.3530    3.4966   -2.6569 N   0  0  0  0  0  0  0  0  0  0  0  0
    0.3306    0.8836    4.4560 H   0  0  0  0  0  0  0  0  0  0  0  0
   -1.0575    1.2503    3.4428 H   0  0  0  0  0  0  0  0  0  0  0  0
    0.4470    2.1664    3.2464 H   0  0  0  0  0  0  0  0  0  0  0  0
   -0.0325   -0.7968    2.6550 H   0  0  0  0  0  0  0  0  0  0  0  0
    2.2641   -1.0552    2.0257 H   0  0  0  0  0  0  0  0  0  0  0  0
    2.2296   -0.3946    3.6541 H   0  0  0  0  0  0  0  0  0  0  0  0
    2.7837    1.8655    2.7952 H   0  0  0  0  0  0  0  0  0  0  0  0
    3.9460    0.6771    2.2121 H   0  0  0  0  0  0  0  0  0  0  0  0
    1.0279    1.8104   -0.5944 H   0  0  0  0  0  0  0  0  0  0  0  0
    0.9196    2.6096    0.9622 H   0  0  0  0  0  0  0  0  0  0  0  0
    0.6220   -0.3507    0.3448 H   0  0  0  0  0  0  0  0  0  0  0  0
   -2.1277    2.4685   -0.0396 H   0  0  0  0  0  0  0  0  0  0  0  0
   -1.1557    2.7003    1.3975 H   0  0  0  0  0  0  0  0  0  0  0  0
   -2.6798    1.8617    1.5533 H   0  0  0  0  0  0  0  0  0  0  0  0
   -4.2087    1.6455   -0.4129 H   0  0  0  0  0  0  0  0  0  0  0  0
   -6.4114    0.2614   -1.1444 H   0  0  0  0  0  0  0  0  0  0  0  0
   -5.8096   -2.1914   -0.9829 H   0  0  0  0  0  0  0  0  0  0  0  0
   -1.5286   -3.6843    0.3283 H   0  0  0  0  0  0  0  0  0  0  0  0
    2.8378    1.7685   -1.9042 H   0  0  0  0  0  0  0  0  0  0  0  0
    2.5685    3.3870   -1.2044 H   0  0  0  0  0  0  0  0  0  0  0  0
  1  2  1  0
  2  3  1  0
  3  4  1  0
  4  5  1  0
  5  6  1  0
  6  7  1  0
  7  8  1  0
  8  9  1  0
  8 10  1  0
 10 11  2  0
 11 12  1  0
 12 13  2  0
 13 14  1  0
 14 15  1  0
 15 16  2  0
 16 17  1  0
 17 18  2  0
  5 19  1  0
 19 20  2  0
 19 21  1  0
 21 22  1  0
 22 23  3  0
  7  2  1  0
 18 10  1  0
 15 11  1  0
  1 24  1  0
  1 25  1  0
  1 26  1  0
  2 27  1  1
  3 28  1  0
  3 29  1  0
  4 30  1  0
  4 31  1  0
  6 32  1  0
  6 33  1  0
  7 34  1  6
  9 35  1  0
  9 36  1  0
  9 37  1  0
 12 38  1  0
 13 39  1  0
 14 40  1  0
 17 41  1  0
 21 42  1  0
 21 43  1  0
M  END
>  <energy_abs>  (131) 
12.997448835959919

>  <SMILES>  (131) 
C[C@@H]1CCN(C[C@@H]1N(C)c2c3cc[nH]c3ncn2)C(=O)CC#N

>  <cluster_no>  (131) 
131

>  <fda_drugs_id>  (131) 
UJLAWZDWDVHWOW-YPMHNXCESA-N

>  <initial_conformation_id>  (131) 
95

>  <minimize_method>  (131) 
MMFF

$$$$

     RDKit          3D

 43 45  0  0  0  0  0  0  0  0999 V2000
   -0.0197    2.4901    3.2454 C   0  0  0  0  0  0  0  0  0  0  0  0
    0.0638    1.0451    2.7478 C   0  0  2  0  0  0  0  0  0  0  0  0
    1.3901    0.3964    3.1820 C   0  0  0  0  0  0  0  0  0  0  0  0
    2.5949    0.9328    2.4116 C   0  0  0  0  0  0  0  0  0  0  0  0
    2.4145    0.8617    0.9598 N   0  0  0  0  0  0  0  0  0  0  0  0
    1.1432    1.4008    0.4501 C   0  0  0  0  0  0  0  0  0  0  0  0
   -0.0868    0.8652    1.2171 C   0  0  2  0  0  0  0  0  0  0  0  0
   -1.3858    1.3945    0.7289 N   0  0  0  0  0  0  0  0  0  0  0  0
   -1.4304    2.7583    0.1928 C   0  0  0  0  0  0  0  0  0  0  0  0
   -2.0024    0.4829   -0.1582 C   0  0  0  0  0  0  0  0  0  0  0  0
   -2.6310   -0.6986    0.2879 C   0  0  0  0  0  0  0  0  0  0  0  0
   -2.8881   -1.3222    1.5435 C   0  0  0  0  0  0  0  0  0  0  0  0
   -3.5668   -2.4983    1.3010 C   0  0  0  0  0  0  0  0  0  0  0  0
   -3.7392   -2.6061   -0.0554 N   0  0  0  0  0  0  0  0  0  0  0  0
   -3.1834   -1.5230   -0.6799 C   0  0  0  0  0  0  0  0  0  0  0  0
   -3.1925   -1.3225   -2.0046 N   0  0  0  0  0  0  0  0  0  0  0  0
   -2.5868   -0.1678   -2.3229 C   0  0  0  0  0  0  0  0  0  0  0  0
   -2.0016    0.7226   -1.4967 N   0  0  0  0  0  0  0  0  0  0  0  0
    3.5790    0.8085    0.1876 C   0  0  0  0  0  0  0  0  0  0  0  0
    4.6956    0.6962    0.7013 O   0  0  0  0  0  0  0  0  0  0  0  0
    3.4597    0.8493   -1.3202 C   0  0  0  0  0  0  0  0  0  0  0  0
    3.3651    2.2305   -1.7873 C   0  0  0  0  0  0  0  0  0  0  0  0
    3.2508    3.3221   -2.1655 N   0  0  0  0  0  0  0  0  0  0  0  0
   -1.0300    2.8891    3.1130 H   0  0  0  0  0  0  0  0  0  0  0  0
    0.6817    3.1514    2.7291 H   0  0  0  0  0  0  0  0  0  0  0  0
    0.2015    2.5417    4.3172 H   0  0  0  0  0  0  0  0  0  0  0  0
   -0.7488    0.4971    3.2423 H   0  0  0  0  0  0  0  0  0  0  0  0
    1.3206   -0.6867    3.0146 H   0  0  0  0  0  0  0  0  0  0  0  0
    1.5497    0.5342    4.2579 H   0  0  0  0  0  0  0  0  0  0  0  0
    3.4822    0.3617    2.7073 H   0  0  0  0  0  0  0  0  0  0  0  0
    2.7891    1.9810    2.6675 H   0  0  0  0  0  0  0  0  0  0  0  0
    1.2209    2.4917    0.5209 H   0  0  0  0  0  0  0  0  0  0  0  0
    1.0260    1.1600   -0.6090 H   0  0  0  0  0  0  0  0  0  0  0  0
   -0.0647   -0.2256    1.0655 H   0  0  0  0  0  0  0  0  0  0  0  0
   -2.4669    3.0629    0.0033 H   0  0  0  0  0  0  0  0  0  0  0  0
   -0.8589    2.8683   -0.7364 H   0  0  0  0  0  0  0  0  0  0  0  0
   -1.0249    3.4745    0.9121 H   0  0  0  0  0  0  0  0  0  0  0  0
   -2.6110   -0.9407    2.5171 H   0  0  0  0  0  0  0  0  0  0  0  0
   -3.9472   -3.2576    1.9714 H   0  0  0  0  0  0  0  0  0  0  0  0
   -4.2103   -3.3541   -0.5432 H   0  0  0  0  0  0  0  0  0  0  0  0
   -2.5613    0.0805   -3.3797 H   0  0  0  0  0  0  0  0  0  0  0  0
    4.3539    0.3736   -1.7404 H   0  0  0  0  0  0  0  0  0  0  0  0
    2.6153    0.2393   -1.6534 H   0  0  0  0  0  0  0  0  0  0  0  0
  1  2  1  0
  2  3  1  0
  3  4  1  0
  4  5  1  0
  5  6  1  0
  6  7  1  0
  7  8  1  0
  8  9  1  0
  8 10  1  0
 10 11  2  0
 11 12  1  0
 12 13  2  0
 13 14  1  0
 14 15  1  0
 15 16  2  0
 16 17  1  0
 17 18  2  0
  5 19  1  0
 19 20  2  0
 19 21  1  0
 21 22  1  0
 22 23  3  0
  7  2  1  0
 18 10  1  0
 15 11  1  0
  1 24  1  0
  1 25  1  0
  1 26  1  0
  2 27  1  1
  3 28  1  0
  3 29  1  0
  4 30  1  0
  4 31  1  0
  6 32  1  0
  6 33  1  0
  7 34  1  1
  9 35  1  0
  9 36  1  0
  9 37  1  0
 12 38  1  0
 13 39  1  0
 14 40  1  0
 17 41  1  0
 21 42  1  0
 21 43  1  0
M  END
>  <energy_abs>  (132) 
10.354319108181095

>  <SMILES>  (132) 
C[C@@H]1CCN(C[C@@H]1N(C)c2c3cc[nH]c3ncn2)C(=O)CC#N

>  <cluster_no>  (132) 
132

>  <fda_drugs_id>  (132) 
UJLAWZDWDVHWOW-YPMHNXCESA-N

>  <initial_conformation_id>  (132) 
94

>  <minimize_method>  (132) 
MMFF

$$$$

     RDKit          3D

 43 45  0  0  0  0  0  0  0  0999 V2000
   -0.9041    1.9961    3.5166 C   0  0  0  0  0  0  0  0  0  0  0  0
    0.2839    1.0702    3.2370 C   0  0  2  0  0  0  0  0  0  0  0  0
    1.6221    1.8072    3.4182 C   0  0  0  0  0  0  0  0  0  0  0  0
    2.1090    2.4773    2.1422 C   0  0  0  0  0  0  0  0  0  0  0  0
    2.2021    1.5556    1.0118 N   0  0  0  0  0  0  0  0  0  0  0  0
    1.5804    0.2310    1.1669 C   0  0  0  0  0  0  0  0  0  0  0  0
    0.2167    0.2622    1.9032 C   0  0  2  0  0  0  0  0  0  0  0  0
   -0.9283    0.6598    1.0405 N   0  0  0  0  0  0  0  0  0  0  0  0
   -0.7835    1.8120    0.1503 C   0  0  0  0  0  0  0  0  0  0  0  0
   -1.5133   -0.4175    0.3411 C   0  0  0  0  0  0  0  0  0  0  0  0
   -2.8745   -0.4295   -0.0318 C   0  0  0  0  0  0  0  0  0  0  0  0
   -3.9999    0.4306    0.1339 C   0  0  0  0  0  0  0  0  0  0  0  0
   -5.0839   -0.1674   -0.4742 C   0  0  0  0  0  0  0  0  0  0  0  0
   -4.6604   -1.3641   -0.9931 N   0  0  0  0  0  0  0  0  0  0  0  0
   -3.3306   -1.5405   -0.7240 C   0  0  0  0  0  0  0  0  0  0  0  0
   -2.6208   -2.6195   -1.0799 N   0  0  0  0  0  0  0  0  0  0  0  0
   -1.3495   -2.5205   -0.6634 C   0  0  0  0  0  0  0  0  0  0  0  0
   -0.7670   -1.5074    0.0111 N   0  0  0  0  0  0  0  0  0  0  0  0
    2.8942    1.9901   -0.1190 C   0  0  0  0  0  0  0  0  0  0  0  0
    3.3166    3.1446   -0.1947 O   0  0  0  0  0  0  0  0  0  0  0  0
    3.0848    0.9883   -1.2406 C   0  0  0  0  0  0  0  0  0  0  0  0
    4.0103    1.4719   -2.2691 C   0  0  0  0  0  0  0  0  0  0  0  0
    4.7382    1.7879   -3.1170 N   0  0  0  0  0  0  0  0  0  0  0  0
   -1.8540    1.4586    3.4297 H   0  0  0  0  0  0  0  0  0  0  0  0
   -0.9241    2.8579    2.8444 H   0  0  0  0  0  0  0  0  0  0  0  0
   -0.8481    2.3866    4.5391 H   0  0  0  0  0  0  0  0  0  0  0  0
    0.2535    0.3254    4.0469 H   0  0  0  0  0  0  0  0  0  0  0  0
    1.5537    2.5466    4.2248 H   0  0  0  0  0  0  0  0  0  0  0  0
    2.3789    1.0787    3.7394 H   0  0  0  0  0  0  0  0  0  0  0  0
    1.4433    3.2987    1.8563 H   0  0  0  0  0  0  0  0  0  0  0  0
    3.0984    2.9174    2.3154 H   0  0  0  0  0  0  0  0  0  0  0  0
    2.2921   -0.3690    1.7480 H   0  0  0  0  0  0  0  0  0  0  0  0
    1.4811   -0.2594    0.1972 H   0  0  0  0  0  0  0  0  0  0  0  0
    0.0308   -0.7713    2.2336 H   0  0  0  0  0  0  0  0  0  0  0  0
   -0.1477    1.5820   -0.7121 H   0  0  0  0  0  0  0  0  0  0  0  0
   -0.3528    2.6667    0.6745 H   0  0  0  0  0  0  0  0  0  0  0  0
   -1.7528    2.1551   -0.2271 H   0  0  0  0  0  0  0  0  0  0  0  0
   -4.0080    1.3815    0.6508 H   0  0  0  0  0  0  0  0  0  0  0  0
   -6.1138    0.1489   -0.5750 H   0  0  0  0  0  0  0  0  0  0  0  0
   -5.2265   -2.0367   -1.4899 H   0  0  0  0  0  0  0  0  0  0  0  0
   -0.7062   -3.3625   -0.9006 H   0  0  0  0  0  0  0  0  0  0  0  0
    2.1097    0.7880   -1.6967 H   0  0  0  0  0  0  0  0  0  0  0  0
    3.4809    0.0563   -0.8234 H   0  0  0  0  0  0  0  0  0  0  0  0
  1  2  1  0
  2  3  1  0
  3  4  1  0
  4  5  1  0
  5  6  1  0
  6  7  1  0
  7  8  1  0
  8  9  1  0
  8 10  1  0
 10 11  2  0
 11 12  1  0
 12 13  2  0
 13 14  1  0
 14 15  1  0
 15 16  2  0
 16 17  1  0
 17 18  2  0
  5 19  1  0
 19 20  2  0
 19 21  1  0
 21 22  1  0
 22 23  3  0
  7  2  1  0
 18 10  1  0
 15 11  1  0
  1 24  1  0
  1 25  1  0
  1 26  1  0
  2 27  1  1
  3 28  1  0
  3 29  1  0
  4 30  1  0
  4 31  1  0
  6 32  1  0
  6 33  1  0
  7 34  1  1
  9 35  1  0
  9 36  1  0
  9 37  1  0
 12 38  1  0
 13 39  1  0
 14 40  1  0
 17 41  1  0
 21 42  1  0
 21 43  1  0
M  END
>  <energy_abs>  (133) 
14.000630334759347

>  <SMILES>  (133) 
C[C@@H]1CCN(C[C@@H]1N(C)c2c3cc[nH]c3ncn2)C(=O)CC#N

>  <cluster_no>  (133) 
133

>  <fda_drugs_id>  (133) 
UJLAWZDWDVHWOW-YPMHNXCESA-N

>  <initial_conformation_id>  (133) 
89

>  <minimize_method>  (133) 
MMFF

$$$$

     RDKit          3D

 43 45  0  0  0  0  0  0  0  0999 V2000
   -0.3402    0.2521    3.8872 C   0  0  0  0  0  0  0  0  0  0  0  0
    0.7973   -0.3657    3.0670 C   0  0  2  0  0  0  0  0  0  0  0  0
    2.1549    0.2399    3.4548 C   0  0  0  0  0  0  0  0  0  0  0  0
    2.4957    1.4812    2.6464 C   0  0  0  0  0  0  0  0  0  0  0  0
    2.4987    1.2367    1.2056 N   0  0  0  0  0  0  0  0  0  0  0  0
    1.8396    0.0115    0.7234 C   0  0  0  0  0  0  0  0  0  0  0  0
    0.5765   -0.4035    1.5233 C   0  0  2  0  0  0  0  0  0  0  0  0
   -0.6644    0.2982    1.1008 N   0  0  0  0  0  0  0  0  0  0  0  0
   -0.6137    1.7422    0.8612 C   0  0  0  0  0  0  0  0  0  0  0  0
   -1.3374   -0.3367    0.0330 C   0  0  0  0  0  0  0  0  0  0  0  0
   -2.7317   -0.2263   -0.1577 C   0  0  0  0  0  0  0  0  0  0  0  0
   -3.8214    0.4013    0.5154 C   0  0  0  0  0  0  0  0  0  0  0  0
   -4.9733    0.1232   -0.1906 C   0  0  0  0  0  0  0  0  0  0  0  0
   -4.6240   -0.6583   -1.2619 N   0  0  0  0  0  0  0  0  0  0  0  0
   -3.2754   -0.8885   -1.2474 C   0  0  0  0  0  0  0  0  0  0  0  0
   -2.6236   -1.6352   -2.1486 N   0  0  0  0  0  0  0  0  0  0  0  0
   -1.3122   -1.6911   -1.8703 C   0  0  0  0  0  0  0  0  0  0  0  0
   -0.6468   -1.1078   -0.8520 N   0  0  0  0  0  0  0  0  0  0  0  0
    3.1655    2.1562    0.4034 C   0  0  0  0  0  0  0  0  0  0  0  0
    3.6279    3.2005    0.8723 O   0  0  0  0  0  0  0  0  0  0  0  0
    3.3451    1.8580   -1.0685 C   0  0  0  0  0  0  0  0  0  0  0  0
    2.2767    2.4798   -1.8468 C   0  0  0  0  0  0  0  0  0  0  0  0
    1.4282    2.9508   -2.4840 N   0  0  0  0  0  0  0  0  0  0  0  0
   -1.3003   -0.2169    3.6481 H   0  0  0  0  0  0  0  0  0  0  0  0
   -0.1645    0.0961    4.9578 H   0  0  0  0  0  0  0  0  0  0  0  0
   -0.4258    1.3303    3.7286 H   0  0  0  0  0  0  0  0  0  0  0  0
    0.8426   -1.4146    3.3973 H   0  0  0  0  0  0  0  0  0  0  0  0
    2.9355   -0.5141    3.2850 H   0  0  0  0  0  0  0  0  0  0  0  0
    2.1852    0.4724    4.5258 H   0  0  0  0  0  0  0  0  0  0  0  0
    1.7865    2.2898    2.8516 H   0  0  0  0  0  0  0  0  0  0  0  0
    3.4859    1.8456    2.9453 H   0  0  0  0  0  0  0  0  0  0  0  0
    2.5929   -0.7821    0.8072 H   0  0  0  0  0  0  0  0  0  0  0  0
    1.6022    0.1083   -0.3378 H   0  0  0  0  0  0  0  0  0  0  0  0
    0.4318   -1.4742    1.3118 H   0  0  0  0  0  0  0  0  0  0  0  0
   -0.0945    1.9813   -0.0722 H   0  0  0  0  0  0  0  0  0  0  0  0
   -0.1059    2.2598    1.6768 H   0  0  0  0  0  0  0  0  0  0  0  0
   -1.6167    2.1792    0.8126 H   0  0  0  0  0  0  0  0  0  0  0  0
   -3.7599    0.9885    1.4224 H   0  0  0  0  0  0  0  0  0  0  0  0
   -6.0034    0.4075   -0.0221 H   0  0  0  0  0  0  0  0  0  0  0  0
   -5.2483   -1.0296   -1.9630 H   0  0  0  0  0  0  0  0  0  0  0  0
   -0.7085   -2.2826   -2.5519 H   0  0  0  0  0  0  0  0  0  0  0  0
    4.3162    2.2685   -1.3705 H   0  0  0  0  0  0  0  0  0  0  0  0
    3.4141    0.7827   -1.2519 H   0  0  0  0  0  0  0  0  0  0  0  0
  1  2  1  0
  2  3  1  0
  3  4  1  0
  4  5  1  0
  5  6  1  0
  6  7  1  0
  7  8  1  0
  8  9  1  0
  8 10  1  0
 10 11  2  0
 11 12  1  0
 12 13  2  0
 13 14  1  0
 14 15  1  0
 15 16  2  0
 16 17  1  0
 17 18  2  0
  5 19  1  0
 19 20  2  0
 19 21  1  0
 21 22  1  0
 22 23  3  0
  7  2  1  0
 18 10  1  0
 15 11  1  0
  1 24  1  0
  1 25  1  0
  1 26  1  0
  2 27  1  1
  3 28  1  0
  3 29  1  0
  4 30  1  0
  4 31  1  0
  6 32  1  0
  6 33  1  0
  7 34  1  6
  9 35  1  0
  9 36  1  0
  9 37  1  0
 12 38  1  0
 13 39  1  0
 14 40  1  0
 17 41  1  0
 21 42  1  0
 21 43  1  0
M  END
>  <energy_abs>  (134) 
14.028676732246817

>  <SMILES>  (134) 
C[C@@H]1CCN(C[C@@H]1N(C)c2c3cc[nH]c3ncn2)C(=O)CC#N

>  <cluster_no>  (134) 
134

>  <fda_drugs_id>  (134) 
UJLAWZDWDVHWOW-YPMHNXCESA-N

>  <initial_conformation_id>  (134) 
86

>  <minimize_method>  (134) 
MMFF

$$$$

     RDKit          3D

 43 45  0  0  0  0  0  0  0  0999 V2000
   -0.4509   -0.6395    3.4696 C   0  0  0  0  0  0  0  0  0  0  0  0
    0.5320    0.1635    2.6160 C   0  0  2  0  0  0  0  0  0  0  0  0
    0.0804    1.6145    2.4579 C   0  0  0  0  0  0  0  0  0  0  0  0
    0.9867    2.4427    1.5460 C   0  0  0  0  0  0  0  0  0  0  0  0
    2.0996    1.7041    0.9479 N   0  0  0  0  0  0  0  0  0  0  0  0
    1.7591    0.3977    0.3622 C   0  0  0  0  0  0  0  0  0  0  0  0
    0.8831   -0.5049    1.2667 C   0  0  2  0  0  0  0  0  0  0  0  0
   -0.2684   -1.1566    0.5912 N   0  0  0  0  0  0  0  0  0  0  0  0
    0.0914   -2.1823   -0.3935 C   0  0  0  0  0  0  0  0  0  0  0  0
   -1.3095   -0.3645    0.0905 C   0  0  0  0  0  0  0  0  0  0  0  0
   -2.6485   -0.8108    0.0930 C   0  0  0  0  0  0  0  0  0  0  0  0
   -3.3489   -1.9681    0.5438 C   0  0  0  0  0  0  0  0  0  0  0  0
   -4.6859   -1.7934    0.2530 C   0  0  0  0  0  0  0  0  0  0  0  0
   -4.8225   -0.5698   -0.3519 N   0  0  0  0  0  0  0  0  0  0  0  0
   -3.6004    0.0370   -0.4504 C   0  0  0  0  0  0  0  0  0  0  0  0
   -3.3929    1.2465   -0.9876 N   0  0  0  0  0  0  0  0  0  0  0  0
   -2.0937    1.5789   -0.9368 C   0  0  0  0  0  0  0  0  0  0  0  0
   -1.0673    0.8618   -0.4334 N   0  0  0  0  0  0  0  0  0  0  0  0
    3.1662    2.4803    0.4803 C   0  0  0  0  0  0  0  0  0  0  0  0
    3.2253    3.6979    0.6750 O   0  0  0  0  0  0  0  0  0  0  0  0
    4.3083    1.7945   -0.2354 C   0  0  0  0  0  0  0  0  0  0  0  0
    4.0117    1.6332   -1.6565 C   0  0  0  0  0  0  0  0  0  0  0  0
    3.7874    1.4557   -2.7816 N   0  0  0  0  0  0  0  0  0  0  0  0
   -0.5221   -0.2098    4.4748 H   0  0  0  0  0  0  0  0  0  0  0  0
   -0.1183   -1.6774    3.5748 H   0  0  0  0  0  0  0  0  0  0  0  0
   -1.4586   -0.6419    3.0440 H   0  0  0  0  0  0  0  0  0  0  0  0
    1.4702    0.1991    3.1911 H   0  0  0  0  0  0  0  0  0  0  0  0
    0.0500    2.0901    3.4474 H   0  0  0  0  0  0  0  0  0  0  0  0
   -0.9516    1.6682    2.0944 H   0  0  0  0  0  0  0  0  0  0  0  0
    1.3833    3.2859    2.1247 H   0  0  0  0  0  0  0  0  0  0  0  0
    0.4051    2.8840    0.7279 H   0  0  0  0  0  0  0  0  0  0  0  0
    2.6818   -0.1526    0.1550 H   0  0  0  0  0  0  0  0  0  0  0  0
    1.3188    0.5868   -0.6210 H   0  0  0  0  0  0  0  0  0  0  0  0
    1.5368   -1.3413    1.5591 H   0  0  0  0  0  0  0  0  0  0  0  0
   -0.7702   -2.7940   -0.6834 H   0  0  0  0  0  0  0  0  0  0  0  0
    0.8315   -2.8705    0.0299 H   0  0  0  0  0  0  0  0  0  0  0  0
    0.5233   -1.7365   -1.2972 H   0  0  0  0  0  0  0  0  0  0  0  0
   -2.9115   -2.8285    1.0333 H   0  0  0  0  0  0  0  0  0  0  0  0
   -5.5462   -2.4260    0.4274 H   0  0  0  0  0  0  0  0  0  0  0  0
   -5.6827   -0.1539   -0.6785 H   0  0  0  0  0  0  0  0  0  0  0  0
   -1.8333    2.5481   -1.3518 H   0  0  0  0  0  0  0  0  0  0  0  0
    4.5442    0.8421    0.2478 H   0  0  0  0  0  0  0  0  0  0  0  0
    5.2024    2.4173   -0.1109 H   0  0  0  0  0  0  0  0  0  0  0  0
  1  2  1  0
  2  3  1  0
  3  4  1  0
  4  5  1  0
  5  6  1  0
  6  7  1  0
  7  8  1  0
  8  9  1  0
  8 10  1  0
 10 11  2  0
 11 12  1  0
 12 13  2  0
 13 14  1  0
 14 15  1  0
 15 16  2  0
 16 17  1  0
 17 18  2  0
  5 19  1  0
 19 20  2  0
 19 21  1  0
 21 22  1  0
 22 23  3  0
  7  2  1  0
 18 10  1  0
 15 11  1  0
  1 24  1  0
  1 25  1  0
  1 26  1  0
  2 27  1  1
  3 28  1  0
  3 29  1  0
  4 30  1  0
  4 31  1  0
  6 32  1  0
  6 33  1  0
  7 34  1  1
  9 35  1  0
  9 36  1  0
  9 37  1  0
 12 38  1  0
 13 39  1  0
 14 40  1  0
 17 41  1  0
 21 42  1  0
 21 43  1  0
M  END
>  <energy_abs>  (135) 
18.070345432044803

>  <SMILES>  (135) 
C[C@@H]1CCN(C[C@@H]1N(C)c2c3cc[nH]c3ncn2)C(=O)CC#N

>  <cluster_no>  (135) 
135

>  <fda_drugs_id>  (135) 
UJLAWZDWDVHWOW-YPMHNXCESA-N

>  <initial_conformation_id>  (135) 
85

>  <minimize_method>  (135) 
MMFF

$$$$

     RDKit          3D

 43 45  0  0  0  0  0  0  0  0999 V2000
   -0.4597   -0.9637    3.4972 C   0  0  0  0  0  0  0  0  0  0  0  0
    0.6572   -0.1797    2.8085 C   0  0  2  0  0  0  0  0  0  0  0  0
    0.3496    1.3211    2.7826 C   0  0  0  0  0  0  0  0  0  0  0  0
    1.4873    2.1094    2.1402 C   0  0  0  0  0  0  0  0  0  0  0  0
    1.8036    1.6222    0.8026 N   0  0  0  0  0  0  0  0  0  0  0  0
    2.0663    0.1810    0.6869 C   0  0  0  0  0  0  0  0  0  0  0  0
    1.0587   -0.7357    1.4213 C   0  0  2  0  0  0  0  0  0  0  0  0
   -0.0695   -1.1902    0.5725 N   0  0  0  0  0  0  0  0  0  0  0  0
   -0.2233   -2.6242    0.3761 C   0  0  0  0  0  0  0  0  0  0  0  0
   -1.0547   -0.3403    0.0987 C   0  0  0  0  0  0  0  0  0  0  0  0
   -2.4361   -0.6556    0.0073 C   0  0  0  0  0  0  0  0  0  0  0  0
   -3.2896   -1.7493    0.3546 C   0  0  0  0  0  0  0  0  0  0  0  0
   -4.5834   -1.4177    0.0105 C   0  0  0  0  0  0  0  0  0  0  0  0
   -4.5566   -0.1567   -0.5209 N   0  0  0  0  0  0  0  0  0  0  0  0
   -3.2752    0.3206   -0.5152 C   0  0  0  0  0  0  0  0  0  0  0  0
   -2.9349    1.5413   -0.9459 N   0  0  0  0  0  0  0  0  0  0  0  0
   -1.6198    1.7475   -0.8112 C   0  0  0  0  0  0  0  0  0  0  0  0
   -0.6906    0.8927   -0.3409 N   0  0  0  0  0  0  0  0  0  0  0  0
    2.0333    2.5496   -0.2073 C   0  0  0  0  0  0  0  0  0  0  0  0
    1.9512    3.7666   -0.0112 O   0  0  0  0  0  0  0  0  0  0  0  0
    2.3664    2.0542   -1.5969 C   0  0  0  0  0  0  0  0  0  0  0  0
    3.7762    1.6798   -1.6834 C   0  0  0  0  0  0  0  0  0  0  0  0
    4.8856    1.3454   -1.7602 N   0  0  0  0  0  0  0  0  0  0  0  0
   -1.4225   -0.8349    2.9947 H   0  0  0  0  0  0  0  0  0  0  0  0
   -0.2242   -2.0324    3.5279 H   0  0  0  0  0  0  0  0  0  0  0  0
   -0.5831   -0.6233    4.5312 H   0  0  0  0  0  0  0  0  0  0  0  0
    1.5463   -0.2936    3.4474 H   0  0  0  0  0  0  0  0  0  0  0  0
    0.2018    1.6855    3.8067 H   0  0  0  0  0  0  0  0  0  0  0  0
   -0.5875    1.5131    2.2502 H   0  0  0  0  0  0  0  0  0  0  0  0
    1.2175    3.1702    2.1205 H   0  0  0  0  0  0  0  0  0  0  0  0
    2.4004    2.0205    2.7412 H   0  0  0  0  0  0  0  0  0  0  0  0
    3.0579    0.0376    1.1365 H   0  0  0  0  0  0  0  0  0  0  0  0
    2.1538   -0.1361   -0.3539 H   0  0  0  0  0  0  0  0  0  0  0  0
    1.6376   -1.6445    1.6431 H   0  0  0  0  0  0  0  0  0  0  0  0
    0.7554   -3.1080    0.2781 H   0  0  0  0  0  0  0  0  0  0  0  0
   -0.7665   -2.8605   -0.5458 H   0  0  0  0  0  0  0  0  0  0  0  0
   -0.7344   -3.0816    1.2286 H   0  0  0  0  0  0  0  0  0  0  0  0
   -2.9978   -2.6809    0.8181 H   0  0  0  0  0  0  0  0  0  0  0  0
   -5.5135   -1.9622    0.1067 H   0  0  0  0  0  0  0  0  0  0  0  0
   -5.3486    0.3724   -0.8561 H   0  0  0  0  0  0  0  0  0  0  0  0
   -1.2542    2.7228   -1.1183 H   0  0  0  0  0  0  0  0  0  0  0  0
    2.1553    2.8671   -2.3021 H   0  0  0  0  0  0  0  0  0  0  0  0
    1.7022    1.2351   -1.8851 H   0  0  0  0  0  0  0  0  0  0  0  0
  1  2  1  0
  2  3  1  0
  3  4  1  0
  4  5  1  0
  5  6  1  0
  6  7  1  0
  7  8  1  0
  8  9  1  0
  8 10  1  0
 10 11  2  0
 11 12  1  0
 12 13  2  0
 13 14  1  0
 14 15  1  0
 15 16  2  0
 16 17  1  0
 17 18  2  0
  5 19  1  0
 19 20  2  0
 19 21  1  0
 21 22  1  0
 22 23  3  0
  7  2  1  0
 18 10  1  0
 15 11  1  0
  1 24  1  0
  1 25  1  0
  1 26  1  0
  2 27  1  1
  3 28  1  0
  3 29  1  0
  4 30  1  0
  4 31  1  0
  6 32  1  0
  6 33  1  0
  7 34  1  1
  9 35  1  0
  9 36  1  0
  9 37  1  0
 12 38  1  0
 13 39  1  0
 14 40  1  0
 17 41  1  0
 21 42  1  0
 21 43  1  0
M  END
>  <energy_abs>  (136) 
12.896348525942614

>  <SMILES>  (136) 
C[C@@H]1CCN(C[C@@H]1N(C)c2c3cc[nH]c3ncn2)C(=O)CC#N

>  <cluster_no>  (136) 
136

>  <fda_drugs_id>  (136) 
UJLAWZDWDVHWOW-YPMHNXCESA-N

>  <initial_conformation_id>  (136) 
84

>  <minimize_method>  (136) 
MMFF

$$$$

     RDKit          3D

 43 45  0  0  0  0  0  0  0  0999 V2000
    1.1405   -0.9682    4.3207 C   0  0  0  0  0  0  0  0  0  0  0  0
    1.4951   -0.5115    2.9071 C   0  0  2  0  0  0  0  0  0  0  0  0
    1.8586    0.9800    2.8455 C   0  0  0  0  0  0  0  0  0  0  0  0
    1.7831    1.5677    1.4315 C   0  0  0  0  0  0  0  0  0  0  0  0
    2.0606    0.5780    0.3887 N   0  0  0  0  0  0  0  0  0  0  0  0
    1.3083   -0.6912    0.4601 C   0  0  0  0  0  0  0  0  0  0  0  0
    0.4972   -0.8991    1.7850 C   0  0  2  0  0  0  0  0  0  0  0  0
   -0.7512   -0.0710    1.7849 N   0  0  0  0  0  0  0  0  0  0  0  0
   -1.6036   -0.1666    2.9731 C   0  0  0  0  0  0  0  0  0  0  0  0
   -1.5871   -0.4132    0.6871 C   0  0  0  0  0  0  0  0  0  0  0  0
   -2.2421    0.5721   -0.0745 C   0  0  0  0  0  0  0  0  0  0  0  0
   -2.3150    1.9940   -0.0761 C   0  0  0  0  0  0  0  0  0  0  0  0
   -3.1410    2.3708   -1.1147 C   0  0  0  0  0  0  0  0  0  0  0  0
   -3.5678    1.2283   -1.7431 N   0  0  0  0  0  0  0  0  0  0  0  0
   -3.0326    0.1320   -1.1235 C   0  0  0  0  0  0  0  0  0  0  0  0
   -3.2498   -1.1378   -1.4939 N   0  0  0  0  0  0  0  0  0  0  0  0
   -2.5765   -1.9936   -0.7072 C   0  0  0  0  0  0  0  0  0  0  0  0
   -1.7747   -1.7132    0.3410 N   0  0  0  0  0  0  0  0  0  0  0  0
    2.7199    0.8382   -0.8085 C   0  0  0  0  0  0  0  0  0  0  0  0
    2.8059   -0.0151   -1.6970 O   0  0  0  0  0  0  0  0  0  0  0  0
    3.3834    2.1809   -1.0075 C   0  0  0  0  0  0  0  0  0  0  0  0
    2.3967    3.2064   -1.3402 C   0  0  0  0  0  0  0  0  0  0  0  0
    1.6343    4.0506   -1.5726 N   0  0  0  0  0  0  0  0  0  0  0  0
    0.7657   -1.9967    4.3186 H   0  0  0  0  0  0  0  0  0  0  0  0
    0.4033   -0.3282    4.8075 H   0  0  0  0  0  0  0  0  0  0  0  0
    2.0352   -0.9451    4.9538 H   0  0  0  0  0  0  0  0  0  0  0  0
    2.4211   -1.0642    2.6810 H   0  0  0  0  0  0  0  0  0  0  0  0
    2.8799    1.0997    3.2299 H   0  0  0  0  0  0  0  0  0  0  0  0
    1.2149    1.5737    3.5057 H   0  0  0  0  0  0  0  0  0  0  0  0
    2.4695    2.4150    1.3725 H   0  0  0  0  0  0  0  0  0  0  0  0
    0.7854    1.9744    1.2324 H   0  0  0  0  0  0  0  0  0  0  0  0
    0.6799   -0.7635   -0.4337 H   0  0  0  0  0  0  0  0  0  0  0  0
    2.0520   -1.4947    0.3713 H   0  0  0  0  0  0  0  0  0  0  0  0
    0.2436   -1.9635    1.8818 H   0  0  0  0  0  0  0  0  0  0  0  0
   -1.2040    0.4754    3.7617 H   0  0  0  0  0  0  0  0  0  0  0  0
   -2.6217    0.2054    2.7958 H   0  0  0  0  0  0  0  0  0  0  0  0
   -1.6756   -1.1957    3.3435 H   0  0  0  0  0  0  0  0  0  0  0  0
   -1.8055    2.6625    0.6054 H   0  0  0  0  0  0  0  0  0  0  0  0
   -3.4501    3.3466   -1.4652 H   0  0  0  0  0  0  0  0  0  0  0  0
   -4.1747    1.1780   -2.5482 H   0  0  0  0  0  0  0  0  0  0  0  0
   -2.6922   -3.0469   -0.9446 H   0  0  0  0  0  0  0  0  0  0  0  0
    4.1034    2.0819   -1.8287 H   0  0  0  0  0  0  0  0  0  0  0  0
    3.9738    2.4449   -0.1254 H   0  0  0  0  0  0  0  0  0  0  0  0
  1  2  1  0
  2  3  1  0
  3  4  1  0
  4  5  1  0
  5  6  1  0
  6  7  1  0
  7  8  1  0
  8  9  1  0
  8 10  1  0
 10 11  2  0
 11 12  1  0
 12 13  2  0
 13 14  1  0
 14 15  1  0
 15 16  2  0
 16 17  1  0
 17 18  2  0
  5 19  1  0
 19 20  2  0
 19 21  1  0
 21 22  1  0
 22 23  3  0
  7  2  1  0
 18 10  1  0
 15 11  1  0
  1 24  1  0
  1 25  1  0
  1 26  1  0
  2 27  1  6
  3 28  1  0
  3 29  1  0
  4 30  1  0
  4 31  1  0
  6 32  1  0
  6 33  1  0
  7 34  1  1
  9 35  1  0
  9 36  1  0
  9 37  1  0
 12 38  1  0
 13 39  1  0
 14 40  1  0
 17 41  1  0
 21 42  1  0
 21 43  1  0
M  END
>  <energy_abs>  (137) 
14.770751347703705

>  <SMILES>  (137) 
C[C@@H]1CCN(C[C@@H]1N(C)c2c3cc[nH]c3ncn2)C(=O)CC#N

>  <cluster_no>  (137) 
137

>  <fda_drugs_id>  (137) 
UJLAWZDWDVHWOW-YPMHNXCESA-N

>  <initial_conformation_id>  (137) 
80

>  <minimize_method>  (137) 
MMFF

$$$$

     RDKit          3D

 43 45  0  0  0  0  0  0  0  0999 V2000
    0.2263   -2.1069    2.8743 C   0  0  0  0  0  0  0  0  0  0  0  0
    1.0226   -1.5501    1.6938 C   0  0  2  0  0  0  0  0  0  0  0  0
    2.2972   -0.8541    2.1841 C   0  0  0  0  0  0  0  0  0  0  0  0
    3.1034   -0.2492    1.0432 C   0  0  0  0  0  0  0  0  0  0  0  0
    2.2956    0.5980    0.1696 N   0  0  0  0  0  0  0  0  0  0  0  0
    1.0687   -0.0227   -0.3547 C   0  0  0  0  0  0  0  0  0  0  0  0
    0.1730   -0.6873    0.7221 C   0  0  2  0  0  0  0  0  0  0  0  0
   -0.7410    0.2614    1.4251 N   0  0  0  0  0  0  0  0  0  0  0  0
   -0.1857    1.5081    1.9546 C   0  0  0  0  0  0  0  0  0  0  0  0
   -1.8829    0.5400    0.6284 C   0  0  0  0  0  0  0  0  0  0  0  0
   -2.9450   -0.3750    0.4617 C   0  0  0  0  0  0  0  0  0  0  0  0
   -3.2826   -1.6723    0.9465 C   0  0  0  0  0  0  0  0  0  0  0  0
   -4.4945   -2.0322    0.3946 C   0  0  0  0  0  0  0  0  0  0  0  0
   -4.9109   -0.9959   -0.4002 N   0  0  0  0  0  0  0  0  0  0  0  0
   -3.9899    0.0148   -0.3629 C   0  0  0  0  0  0  0  0  0  0  0  0
   -4.1129    1.1732   -1.0242 N   0  0  0  0  0  0  0  0  0  0  0  0
   -3.0670    1.9788   -0.7851 C   0  0  0  0  0  0  0  0  0  0  0  0
   -1.9914    1.7363   -0.0110 N   0  0  0  0  0  0  0  0  0  0  0  0
    2.8479    1.6393   -0.5932 C   0  0  0  0  0  0  0  0  0  0  0  0
    2.3019    2.0493   -1.6171 O   0  0  0  0  0  0  0  0  0  0  0  0
    4.1442    2.2398   -0.0863 C   0  0  0  0  0  0  0  0  0  0  0  0
    4.5067    3.4715   -0.7934 C   0  0  0  0  0  0  0  0  0  0  0  0
    4.8583    4.4536   -1.3039 N   0  0  0  0  0  0  0  0  0  0  0  0
   -0.1381   -1.3120    3.5325 H   0  0  0  0  0  0  0  0  0  0  0  0
   -0.6306   -2.6888    2.5246 H   0  0  0  0  0  0  0  0  0  0  0  0
    0.8501   -2.7757    3.4775 H   0  0  0  0  0  0  0  0  0  0  0  0
    1.3607   -2.4197    1.1101 H   0  0  0  0  0  0  0  0  0  0  0  0
    2.0596   -0.0794    2.9178 H   0  0  0  0  0  0  0  0  0  0  0  0
    2.9291   -1.5785    2.7137 H   0  0  0  0  0  0  0  0  0  0  0  0
    3.9445    0.3055    1.4655 H   0  0  0  0  0  0  0  0  0  0  0  0
    3.5303   -1.0414    0.4160 H   0  0  0  0  0  0  0  0  0  0  0  0
    0.4922    0.7067   -0.9331 H   0  0  0  0  0  0  0  0  0  0  0  0
    1.4013   -0.7903   -1.0661 H   0  0  0  0  0  0  0  0  0  0  0  0
   -0.4541   -1.4122    0.1832 H   0  0  0  0  0  0  0  0  0  0  0  0
   -0.9631    2.0939    2.4623 H   0  0  0  0  0  0  0  0  0  0  0  0
    0.2705    2.1387    1.1841 H   0  0  0  0  0  0  0  0  0  0  0  0
    0.5641    1.3045    2.7195 H   0  0  0  0  0  0  0  0  0  0  0  0
   -2.7024   -2.2708    1.6339 H   0  0  0  0  0  0  0  0  0  0  0  0
   -5.0960   -2.9247    0.5051 H   0  0  0  0  0  0  0  0  0  0  0  0
   -5.7675   -0.9530   -0.9330 H   0  0  0  0  0  0  0  0  0  0  0  0
   -3.0866    2.9467   -1.2768 H   0  0  0  0  0  0  0  0  0  0  0  0
    4.0362    2.4669    0.9799 H   0  0  0  0  0  0  0  0  0  0  0  0
    4.9429    1.5016   -0.2149 H   0  0  0  0  0  0  0  0  0  0  0  0
  1  2  1  0
  2  3  1  0
  3  4  1  0
  4  5  1  0
  5  6  1  0
  6  7  1  0
  7  8  1  0
  8  9  1  0
  8 10  1  0
 10 11  2  0
 11 12  1  0
 12 13  2  0
 13 14  1  0
 14 15  1  0
 15 16  2  0
 16 17  1  0
 17 18  2  0
  5 19  1  0
 19 20  2  0
 19 21  1  0
 21 22  1  0
 22 23  3  0
  7  2  1  0
 18 10  1  0
 15 11  1  0
  1 24  1  0
  1 25  1  0
  1 26  1  0
  2 27  1  6
  3 28  1  0
  3 29  1  0
  4 30  1  0
  4 31  1  0
  6 32  1  0
  6 33  1  0
  7 34  1  6
  9 35  1  0
  9 36  1  0
  9 37  1  0
 12 38  1  0
 13 39  1  0
 14 40  1  0
 17 41  1  0
 21 42  1  0
 21 43  1  0
M  END
>  <energy_abs>  (138) 
10.955669831476612

>  <SMILES>  (138) 
C[C@@H]1CCN(C[C@@H]1N(C)c2c3cc[nH]c3ncn2)C(=O)CC#N

>  <cluster_no>  (138) 
138

>  <fda_drugs_id>  (138) 
UJLAWZDWDVHWOW-YPMHNXCESA-N

>  <initial_conformation_id>  (138) 
76

>  <minimize_method>  (138) 
MMFF

$$$$

     RDKit          3D

 43 45  0  0  0  0  0  0  0  0999 V2000
    0.4963    0.7424    2.7137 C   0  0  0  0  0  0  0  0  0  0  0  0
    0.2728   -0.2258    1.5399 C   0  0  2  0  0  0  0  0  0  0  0  0
    1.4820   -1.1825    1.4128 C   0  0  0  0  0  0  0  0  0  0  0  0
    2.4043   -0.8759    0.2319 C   0  0  0  0  0  0  0  0  0  0  0  0
    2.5324    0.5593    0.0104 N   0  0  0  0  0  0  0  0  0  0  0  0
    1.2810    1.2976   -0.1998 C   0  0  0  0  0  0  0  0  0  0  0  0
    0.0044    0.5027    0.1915 C   0  0  2  0  0  0  0  0  0  0  0  0
   -1.1847    1.3889    0.2391 N   0  0  0  0  0  0  0  0  0  0  0  0
   -1.4731    2.1803   -0.9588 C   0  0  0  0  0  0  0  0  0  0  0  0
   -2.3739    0.7492    0.6472 C   0  0  0  0  0  0  0  0  0  0  0  0
   -2.9919   -0.3503    0.0087 C   0  0  0  0  0  0  0  0  0  0  0  0
   -2.7571   -1.1608   -1.1421 C   0  0  0  0  0  0  0  0  0  0  0  0
   -3.7650   -2.0998   -1.2160 C   0  0  0  0  0  0  0  0  0  0  0  0
   -4.6080   -1.8873   -0.1563 N   0  0  0  0  0  0  0  0  0  0  0  0
   -4.1589   -0.8302    0.5862 C   0  0  0  0  0  0  0  0  0  0  0  0
   -4.7735   -0.3645    1.6814 N   0  0  0  0  0  0  0  0  0  0  0  0
   -4.1160    0.6854    2.1970 C   0  0  0  0  0  0  0  0  0  0  0  0
   -2.9833    1.2568    1.7481 N   0  0  0  0  0  0  0  0  0  0  0  0
    3.8021    1.1125   -0.1667 C   0  0  0  0  0  0  0  0  0  0  0  0
    4.8185    0.4219   -0.1046 O   0  0  0  0  0  0  0  0  0  0  0  0
    3.8589    2.6083   -0.4145 C   0  0  0  0  0  0  0  0  0  0  0  0
    5.2154    3.0752   -0.7141 C   0  0  0  0  0  0  0  0  0  0  0  0
    6.2595    3.5150   -0.9690 N   0  0  0  0  0  0  0  0  0  0  0  0
   -0.3369    1.4415    2.8272 H   0  0  0  0  0  0  0  0  0  0  0  0
    0.5813    0.1846    3.6531 H   0  0  0  0  0  0  0  0  0  0  0  0
    1.4144    1.3264    2.5956 H   0  0  0  0  0  0  0  0  0  0  0  0
   -0.5950   -0.8421    1.8064 H   0  0  0  0  0  0  0  0  0  0  0  0
    2.0690   -1.1729    2.3399 H   0  0  0  0  0  0  0  0  0  0  0  0
    1.1194   -2.2122    1.3015 H   0  0  0  0  0  0  0  0  0  0  0  0
    2.0000   -1.3090   -0.6913 H   0  0  0  0  0  0  0  0  0  0  0  0
    3.3772   -1.3495    0.3986 H   0  0  0  0  0  0  0  0  0  0  0  0
    1.2409    1.5562   -1.2647 H   0  0  0  0  0  0  0  0  0  0  0  0
    1.3354    2.2400    0.3568 H   0  0  0  0  0  0  0  0  0  0  0  0
   -0.1490   -0.2611   -0.5813 H   0  0  0  0  0  0  0  0  0  0  0  0
   -1.5451    1.5535   -1.8548 H   0  0  0  0  0  0  0  0  0  0  0  0
   -2.4027    2.7537   -0.8529 H   0  0  0  0  0  0  0  0  0  0  0  0
   -0.6798    2.9168   -1.1239 H   0  0  0  0  0  0  0  0  0  0  0  0
   -1.9425   -1.0678   -1.8471 H   0  0  0  0  0  0  0  0  0  0  0  0
   -3.9568   -2.8925   -1.9273 H   0  0  0  0  0  0  0  0  0  0  0  0
   -5.4442   -2.4099    0.0621 H   0  0  0  0  0  0  0  0  0  0  0  0
   -4.5496    1.1314    3.0868 H   0  0  0  0  0  0  0  0  0  0  0  0
    3.4873    3.1205    0.4794 H   0  0  0  0  0  0  0  0  0  0  0  0
    3.2081    2.8584   -1.2585 H   0  0  0  0  0  0  0  0  0  0  0  0
  1  2  1  0
  2  3  1  0
  3  4  1  0
  4  5  1  0
  5  6  1  0
  6  7  1  0
  7  8  1  0
  8  9  1  0
  8 10  1  0
 10 11  2  0
 11 12  1  0
 12 13  2  0
 13 14  1  0
 14 15  1  0
 15 16  2  0
 16 17  1  0
 17 18  2  0
  5 19  1  0
 19 20  2  0
 19 21  1  0
 21 22  1  0
 22 23  3  0
  7  2  1  0
 18 10  1  0
 15 11  1  0
  1 24  1  0
  1 25  1  0
  1 26  1  0
  2 27  1  1
  3 28  1  0
  3 29  1  0
  4 30  1  0
  4 31  1  0
  6 32  1  0
  6 33  1  0
  7 34  1  6
  9 35  1  0
  9 36  1  0
  9 37  1  0
 12 38  1  0
 13 39  1  0
 14 40  1  0
 17 41  1  0
 21 42  1  0
 21 43  1  0
M  END
>  <energy_abs>  (139) 
21.538697355914106

>  <SMILES>  (139) 
C[C@@H]1CCN(C[C@@H]1N(C)c2c3cc[nH]c3ncn2)C(=O)CC#N

>  <cluster_no>  (139) 
139

>  <fda_drugs_id>  (139) 
UJLAWZDWDVHWOW-YPMHNXCESA-N

>  <initial_conformation_id>  (139) 
75

>  <minimize_method>  (139) 
MMFF

$$$$

     RDKit          3D

 43 45  0  0  0  0  0  0  0  0999 V2000
   -0.7634    0.8502    2.8082 C   0  0  0  0  0  0  0  0  0  0  0  0
    0.4070    0.9856    1.8366 C   0  0  2  0  0  0  0  0  0  0  0  0
    0.7512    2.4604    1.5631 C   0  0  0  0  0  0  0  0  0  0  0  0
    1.5082    2.6834    0.2507 C   0  0  0  0  0  0  0  0  0  0  0  0
    2.3664    1.5538   -0.1120 N   0  0  0  0  0  0  0  0  0  0  0  0
    1.7515    0.2147   -0.0777 C   0  0  0  0  0  0  0  0  0  0  0  0
    0.3083    0.1688    0.5199 C   0  0  2  0  0  0  0  0  0  0  0  0
   -0.7111    0.7107   -0.4197 N   0  0  0  0  0  0  0  0  0  0  0  0
   -0.6093    0.3609   -1.8374 C   0  0  0  0  0  0  0  0  0  0  0  0
   -2.0531    0.5416   -0.0320 C   0  0  0  0  0  0  0  0  0  0  0  0
   -2.6938   -0.6874    0.2439 C   0  0  0  0  0  0  0  0  0  0  0  0
   -2.3482   -2.0719    0.2451 C   0  0  0  0  0  0  0  0  0  0  0  0
   -3.4648   -2.7906    0.6184 C   0  0  0  0  0  0  0  0  0  0  0  0
   -4.4800   -1.8958    0.8353 N   0  0  0  0  0  0  0  0  0  0  0  0
   -4.0339   -0.6247    0.5990 C   0  0  0  0  0  0  0  0  0  0  0  0
   -4.7969    0.4716    0.6994 N   0  0  0  0  0  0  0  0  0  0  0  0
   -4.1013    1.5764    0.3893 C   0  0  0  0  0  0  0  0  0  0  0  0
   -2.8081    1.6686    0.0283 N   0  0  0  0  0  0  0  0  0  0  0  0
    3.6490    1.8135   -0.5847 C   0  0  0  0  0  0  0  0  0  0  0  0
    4.0974    2.9585   -0.6810 O   0  0  0  0  0  0  0  0  0  0  0  0
    4.5177    0.6448   -0.9948 C   0  0  0  0  0  0  0  0  0  0  0  0
    5.1390    0.0306    0.1763 C   0  0  0  0  0  0  0  0  0  0  0  0
    5.6104   -0.5053    1.0919 N   0  0  0  0  0  0  0  0  0  0  0  0
   -1.6419    1.4157    2.4907 H   0  0  0  0  0  0  0  0  0  0  0  0
   -1.0459   -0.1991    2.9392 H   0  0  0  0  0  0  0  0  0  0  0  0
   -0.4789    1.2396    3.7925 H   0  0  0  0  0  0  0  0  0  0  0  0
    1.2636    0.5636    2.3855 H   0  0  0  0  0  0  0  0  0  0  0  0
   -0.1519    3.0827    1.5526 H   0  0  0  0  0  0  0  0  0  0  0  0
    1.3629    2.8284    2.3971 H   0  0  0  0  0  0  0  0  0  0  0  0
    2.0857    3.6109    0.3273 H   0  0  0  0  0  0  0  0  0  0  0  0
    0.8082    2.8344   -0.5787 H   0  0  0  0  0  0  0  0  0  0  0  0
    2.4014   -0.4121    0.5448 H   0  0  0  0  0  0  0  0  0  0  0  0
    1.7905   -0.2160   -1.0821 H   0  0  0  0  0  0  0  0  0  0  0  0
    0.0962   -0.8813    0.7463 H   0  0  0  0  0  0  0  0  0  0  0  0
   -1.4641    0.7326   -2.4175 H   0  0  0  0  0  0  0  0  0  0  0  0
    0.2739    0.8310   -2.2819 H   0  0  0  0  0  0  0  0  0  0  0  0
   -0.5360   -0.7232   -1.9808 H   0  0  0  0  0  0  0  0  0  0  0  0
   -1.3878   -2.5015   -0.0045 H   0  0  0  0  0  0  0  0  0  0  0  0
   -3.6257   -3.8534    0.7433 H   0  0  0  0  0  0  0  0  0  0  0  0
   -5.4260   -2.1143    1.1136 H   0  0  0  0  0  0  0  0  0  0  0  0
   -4.6472    2.5138    0.4342 H   0  0  0  0  0  0  0  0  0  0  0  0
    3.9406   -0.0824   -1.5715 H   0  0  0  0  0  0  0  0  0  0  0  0
    5.2906    1.0214   -1.6753 H   0  0  0  0  0  0  0  0  0  0  0  0
  1  2  1  0
  2  3  1  0
  3  4  1  0
  4  5  1  0
  5  6  1  0
  6  7  1  0
  7  8  1  0
  8  9  1  0
  8 10  1  0
 10 11  2  0
 11 12  1  0
 12 13  2  0
 13 14  1  0
 14 15  1  0
 15 16  2  0
 16 17  1  0
 17 18  2  0
  5 19  1  0
 19 20  2  0
 19 21  1  0
 21 22  1  0
 22 23  3  0
  7  2  1  0
 18 10  1  0
 15 11  1  0
  1 24  1  0
  1 25  1  0
  1 26  1  0
  2 27  1  1
  3 28  1  0
  3 29  1  0
  4 30  1  0
  4 31  1  0
  6 32  1  0
  6 33  1  0
  7 34  1  1
  9 35  1  0
  9 36  1  0
  9 37  1  0
 12 38  1  0
 13 39  1  0
 14 40  1  0
 17 41  1  0
 21 42  1  0
 21 43  1  0
M  END
>  <energy_abs>  (140) 
21.32042192977327

>  <SMILES>  (140) 
C[C@@H]1CCN(C[C@@H]1N(C)c2c3cc[nH]c3ncn2)C(=O)CC#N

>  <cluster_no>  (140) 
140

>  <fda_drugs_id>  (140) 
UJLAWZDWDVHWOW-YPMHNXCESA-N

>  <initial_conformation_id>  (140) 
70

>  <minimize_method>  (140) 
MMFF

$$$$

     RDKit          3D

 43 45  0  0  0  0  0  0  0  0999 V2000
    1.6421   -0.5299   -2.0194 C   0  0  0  0  0  0  0  0  0  0  0  0
    1.0879    0.9015   -1.9443 C   0  0  2  0  0  0  0  0  0  0  0  0
    2.2496    1.9095   -1.7658 C   0  0  0  0  0  0  0  0  0  0  0  0
    2.3318    2.5213   -0.3678 C   0  0  0  0  0  0  0  0  0  0  0  0
    2.0314    1.5267    0.6542 N   0  0  0  0  0  0  0  0  0  0  0  0
    0.7114    0.8850    0.5540 C   0  0  0  0  0  0  0  0  0  0  0  0
    0.0166    1.0814   -0.8280 C   0  0  2  0  0  0  0  0  0  0  0  0
   -1.1418    0.1583   -1.0072 N   0  0  0  0  0  0  0  0  0  0  0  0
   -1.8354    0.2605   -2.2989 C   0  0  0  0  0  0  0  0  0  0  0  0
   -2.1312    0.3350   -0.0050 C   0  0  0  0  0  0  0  0  0  0  0  0
   -2.9291   -0.7346    0.4479 C   0  0  0  0  0  0  0  0  0  0  0  0
   -3.0352   -2.1294    0.1754 C   0  0  0  0  0  0  0  0  0  0  0  0
   -4.0455   -2.6376    0.9645 C   0  0  0  0  0  0  0  0  0  0  0  0
   -4.5475   -1.6031    1.7133 N   0  0  0  0  0  0  0  0  0  0  0  0
   -3.8796   -0.4474    1.4136 C   0  0  0  0  0  0  0  0  0  0  0  0
   -4.1287    0.7446    1.9731 N   0  0  0  0  0  0  0  0  0  0  0  0
   -3.3122    1.6907    1.4799 C   0  0  0  0  0  0  0  0  0  0  0  0
   -2.3512    1.5605    0.5421 N   0  0  0  0  0  0  0  0  0  0  0  0
    2.8225    1.2057    1.7494 C   0  0  0  0  0  0  0  0  0  0  0  0
    2.4488    0.3971    2.6034 O   0  0  0  0  0  0  0  0  0  0  0  0
    4.1691    1.8723    1.9042 C   0  0  0  0  0  0  0  0  0  0  0  0
    5.1424    1.2872    0.9853 C   0  0  0  0  0  0  0  0  0  0  0  0
    5.9260    0.8630    0.2422 N   0  0  0  0  0  0  0  0  0  0  0  0
    0.8431   -1.2657   -2.1452 H   0  0  0  0  0  0  0  0  0  0  0  0
    2.2109   -0.7963   -1.1228 H   0  0  0  0  0  0  0  0  0  0  0  0
    2.3148   -0.6313   -2.8783 H   0  0  0  0  0  0  0  0  0  0  0  0
    0.6355    1.1160   -2.9198 H   0  0  0  0  0  0  0  0  0  0  0  0
    3.2067    1.4298   -2.0074 H   0  0  0  0  0  0  0  0  0  0  0  0
    2.1356    2.7264   -2.4886 H   0  0  0  0  0  0  0  0  0  0  0  0
    3.3128    2.9824   -0.2305 H   0  0  0  0  0  0  0  0  0  0  0  0
    1.5972    3.3276   -0.2578 H   0  0  0  0  0  0  0  0  0  0  0  0
    0.8283   -0.1836    0.7752 H   0  0  0  0  0  0  0  0  0  0  0  0
    0.1016    1.3053    1.3615 H   0  0  0  0  0  0  0  0  0  0  0  0
   -0.3401    2.1197   -0.9009 H   0  0  0  0  0  0  0  0  0  0  0  0
   -2.7238   -0.3814   -2.3437 H   0  0  0  0  0  0  0  0  0  0  0  0
   -2.1397    1.2928   -2.5112 H   0  0  0  0  0  0  0  0  0  0  0  0
   -1.1861   -0.0805   -3.1120 H   0  0  0  0  0  0  0  0  0  0  0  0
   -2.4299   -2.6902   -0.5238 H   0  0  0  0  0  0  0  0  0  0  0  0
   -4.4435   -3.6385    1.0627 H   0  0  0  0  0  0  0  0  0  0  0  0
   -5.2933   -1.6602    2.3909 H   0  0  0  0  0  0  0  0  0  0  0  0
   -3.4435    2.6888    1.8858 H   0  0  0  0  0  0  0  0  0  0  0  0
    4.0728    2.9545    1.7715 H   0  0  0  0  0  0  0  0  0  0  0  0
    4.5024    1.7262    2.9376 H   0  0  0  0  0  0  0  0  0  0  0  0
  1  2  1  0
  2  3  1  0
  3  4  1  0
  4  5  1  0
  5  6  1  0
  6  7  1  0
  7  8  1  0
  8  9  1  0
  8 10  1  0
 10 11  2  0
 11 12  1  0
 12 13  2  0
 13 14  1  0
 14 15  1  0
 15 16  2  0
 16 17  1  0
 17 18  2  0
  5 19  1  0
 19 20  2  0
 19 21  1  0
 21 22  1  0
 22 23  3  0
  7  2  1  0
 18 10  1  0
 15 11  1  0
  1 24  1  0
  1 25  1  0
  1 26  1  0
  2 27  1  6
  3 28  1  0
  3 29  1  0
  4 30  1  0
  4 31  1  0
  6 32  1  0
  6 33  1  0
  7 34  1  1
  9 35  1  0
  9 36  1  0
  9 37  1  0
 12 38  1  0
 13 39  1  0
 14 40  1  0
 17 41  1  0
 21 42  1  0
 21 43  1  0
M  END
>  <energy_abs>  (141) 
14.887921983463873

>  <SMILES>  (141) 
C[C@@H]1CCN(C[C@@H]1N(C)c2c3cc[nH]c3ncn2)C(=O)CC#N

>  <cluster_no>  (141) 
141

>  <fda_drugs_id>  (141) 
UJLAWZDWDVHWOW-YPMHNXCESA-N

>  <initial_conformation_id>  (141) 
69

>  <minimize_method>  (141) 
MMFF

$$$$

     RDKit          3D

 43 45  0  0  0  0  0  0  0  0999 V2000
    1.4647   -1.0880   -0.5705 C   0  0  0  0  0  0  0  0  0  0  0  0
    0.4497    0.0200   -0.8971 C   0  0  2  0  0  0  0  0  0  0  0  0
    1.0324    0.9585   -1.9806 C   0  0  0  0  0  0  0  0  0  0  0  0
    1.4225    2.3443   -1.4657 C   0  0  0  0  0  0  0  0  0  0  0  0
    2.0303    2.2725   -0.1420 N   0  0  0  0  0  0  0  0  0  0  0  0
    1.2389    1.6046    0.8995 C   0  0  0  0  0  0  0  0  0  0  0  0
    0.0072    0.8291    0.3563 C   0  0  2  0  0  0  0  0  0  0  0  0
   -0.6050   -0.0246    1.4037 N   0  0  0  0  0  0  0  0  0  0  0  0
   -0.9372    0.6109    2.6791 C   0  0  0  0  0  0  0  0  0  0  0  0
   -1.7215   -0.7671    0.9652 C   0  0  0  0  0  0  0  0  0  0  0  0
   -2.9276   -0.2356    0.4541 C   0  0  0  0  0  0  0  0  0  0  0  0
   -3.4816    1.0564    0.2083 C   0  0  0  0  0  0  0  0  0  0  0  0
   -4.7451    0.8860   -0.3185 C   0  0  0  0  0  0  0  0  0  0  0  0
   -4.9830   -0.4615   -0.3973 N   0  0  0  0  0  0  0  0  0  0  0  0
   -3.8989   -1.1503    0.0725 C   0  0  0  0  0  0  0  0  0  0  0  0
   -3.8267   -2.4861    0.1387 N   0  0  0  0  0  0  0  0  0  0  0  0
   -2.6515   -2.8831    0.6511 C   0  0  0  0  0  0  0  0  0  0  0  0
   -1.6251   -2.1167    1.0633 N   0  0  0  0  0  0  0  0  0  0  0  0
    3.2369    2.9241    0.0874 C   0  0  0  0  0  0  0  0  0  0  0  0
    3.8182    3.5548   -0.7989 O   0  0  0  0  0  0  0  0  0  0  0  0
    3.8464    2.8504    1.4703 C   0  0  0  0  0  0  0  0  0  0  0  0
    4.7117    1.6779    1.5796 C   0  0  0  0  0  0  0  0  0  0  0  0
    5.3865    0.7421    1.7077 N   0  0  0  0  0  0  0  0  0  0  0  0
    1.0889   -1.7690    0.1982 H   0  0  0  0  0  0  0  0  0  0  0  0
    2.4196   -0.6801   -0.2244 H   0  0  0  0  0  0  0  0  0  0  0  0
    1.6691   -1.6890   -1.4637 H   0  0  0  0  0  0  0  0  0  0  0  0
   -0.4226   -0.4775   -1.3396 H   0  0  0  0  0  0  0  0  0  0  0  0
    1.9061    0.4928   -2.4538 H   0  0  0  0  0  0  0  0  0  0  0  0
    0.2942    1.0887   -2.7821 H   0  0  0  0  0  0  0  0  0  0  0  0
    0.5359    2.9844   -1.3794 H   0  0  0  0  0  0  0  0  0  0  0  0
    2.0855    2.8272   -2.1909 H   0  0  0  0  0  0  0  0  0  0  0  0
    0.9045    2.3874    1.5907 H   0  0  0  0  0  0  0  0  0  0  0  0
    1.8984    0.9368    1.4649 H   0  0  0  0  0  0  0  0  0  0  0  0
   -0.7266    1.5786    0.0339 H   0  0  0  0  0  0  0  0  0  0  0  0
   -1.5678    1.4965    2.5421 H   0  0  0  0  0  0  0  0  0  0  0  0
   -1.4467   -0.0836    3.3590 H   0  0  0  0  0  0  0  0  0  0  0  0
   -0.0225    0.9226    3.1940 H   0  0  0  0  0  0  0  0  0  0  0  0
   -3.0115    2.0112    0.3995 H   0  0  0  0  0  0  0  0  0  0  0  0
   -5.4918    1.6008   -0.6386 H   0  0  0  0  0  0  0  0  0  0  0  0
   -5.8235   -0.9058   -0.7380 H   0  0  0  0  0  0  0  0  0  0  0  0
   -2.5085   -3.9550    0.7466 H   0  0  0  0  0  0  0  0  0  0  0  0
    4.4288    3.7659    1.6277 H   0  0  0  0  0  0  0  0  0  0  0  0
    3.0749    2.8525    2.2443 H   0  0  0  0  0  0  0  0  0  0  0  0
  1  2  1  0
  2  3  1  0
  3  4  1  0
  4  5  1  0
  5  6  1  0
  6  7  1  0
  7  8  1  0
  8  9  1  0
  8 10  1  0
 10 11  2  0
 11 12  1  0
 12 13  2  0
 13 14  1  0
 14 15  1  0
 15 16  2  0
 16 17  1  0
 17 18  2  0
  5 19  1  0
 19 20  2  0
 19 21  1  0
 21 22  1  0
 22 23  3  0
  7  2  1  0
 18 10  1  0
 15 11  1  0
  1 24  1  0
  1 25  1  0
  1 26  1  0
  2 27  1  6
  3 28  1  0
  3 29  1  0
  4 30  1  0
  4 31  1  0
  6 32  1  0
  6 33  1  0
  7 34  1  6
  9 35  1  0
  9 36  1  0
  9 37  1  0
 12 38  1  0
 13 39  1  0
 14 40  1  0
 17 41  1  0
 21 42  1  0
 21 43  1  0
M  END
>  <energy_abs>  (142) 
21.77494129895858

>  <SMILES>  (142) 
C[C@@H]1CCN(C[C@@H]1N(C)c2c3cc[nH]c3ncn2)C(=O)CC#N

>  <cluster_no>  (142) 
142

>  <fda_drugs_id>  (142) 
UJLAWZDWDVHWOW-YPMHNXCESA-N

>  <initial_conformation_id>  (142) 
67

>  <minimize_method>  (142) 
MMFF

$$$$

     RDKit          3D

 43 45  0  0  0  0  0  0  0  0999 V2000
    1.2371   -1.2792   -2.9225 C   0  0  0  0  0  0  0  0  0  0  0  0
    1.0704    0.1594   -2.4061 C   0  0  2  0  0  0  0  0  0  0  0  0
    2.4757    0.7486   -2.1460 C   0  0  0  0  0  0  0  0  0  0  0  0
    2.5300    1.6716   -0.9368 C   0  0  0  0  0  0  0  0  0  0  0  0
    2.0838    0.9798    0.2740 N   0  0  0  0  0  0  0  0  0  0  0  0
    0.9797    0.0130    0.1156 C   0  0  0  0  0  0  0  0  0  0  0  0
    0.1361    0.2828   -1.1599 C   0  0  2  0  0  0  0  0  0  0  0  0
   -1.0627   -0.5780   -1.3134 N   0  0  0  0  0  0  0  0  0  0  0  0
   -2.0112   -0.1765   -2.3571 C   0  0  0  0  0  0  0  0  0  0  0  0
   -1.7706   -0.8326   -0.1251 C   0  0  0  0  0  0  0  0  0  0  0  0
   -2.4311    0.1310    0.6701 C   0  0  0  0  0  0  0  0  0  0  0  0
   -2.6413    1.5417    0.6425 C   0  0  0  0  0  0  0  0  0  0  0  0
   -3.3856    1.8827    1.7526 C   0  0  0  0  0  0  0  0  0  0  0  0
   -3.6338    0.7320    2.4552 N   0  0  0  0  0  0  0  0  0  0  0  0
   -3.0657   -0.3335    1.8129 C   0  0  0  0  0  0  0  0  0  0  0  0
   -3.1287   -1.5990    2.2479 N   0  0  0  0  0  0  0  0  0  0  0  0
   -2.4678   -2.4276    1.4239 C   0  0  0  0  0  0  0  0  0  0  0  0
   -1.8099   -2.1229    0.2895 N   0  0  0  0  0  0  0  0  0  0  0  0
    2.5654    1.2128    1.5585 C   0  0  0  0  0  0  0  0  0  0  0  0
    2.1532    0.5774    2.5325 O   0  0  0  0  0  0  0  0  0  0  0  0
    3.6392    2.2580    1.7631 C   0  0  0  0  0  0  0  0  0  0  0  0
    3.0950    3.6026    1.5865 C   0  0  0  0  0  0  0  0  0  0  0  0
    2.6851    4.6741    1.4083 N   0  0  0  0  0  0  0  0  0  0  0  0
    1.9287   -1.3033   -3.7722 H   0  0  0  0  0  0  0  0  0  0  0  0
    0.2910   -1.7026   -3.2707 H   0  0  0  0  0  0  0  0  0  0  0  0
    1.6362   -1.9392   -2.1453 H   0  0  0  0  0  0  0  0  0  0  0  0
    0.6143    0.7419   -3.2180 H   0  0  0  0  0  0  0  0  0  0  0  0
    3.2008   -0.0609   -1.9868 H   0  0  0  0  0  0  0  0  0  0  0  0
    2.8123    1.2892   -3.0389 H   0  0  0  0  0  0  0  0  0  0  0  0
    3.5496    2.0441   -0.8171 H   0  0  0  0  0  0  0  0  0  0  0  0
    1.8775    2.5402   -1.0822 H   0  0  0  0  0  0  0  0  0  0  0  0
    0.3636    0.0602    1.0181 H   0  0  0  0  0  0  0  0  0  0  0  0
    1.4247   -0.9890    0.0869 H   0  0  0  0  0  0  0  0  0  0  0  0
   -0.2009    1.3281   -1.1089 H   0  0  0  0  0  0  0  0  0  0  0  0
   -2.8590   -0.8706   -2.4136 H   0  0  0  0  0  0  0  0  0  0  0  0
   -2.3952    0.8372   -2.1990 H   0  0  0  0  0  0  0  0  0  0  0  0
   -1.5329   -0.1948   -3.3412 H   0  0  0  0  0  0  0  0  0  0  0  0
   -2.2830    2.2362   -0.1051 H   0  0  0  0  0  0  0  0  0  0  0  0
   -3.7522    2.8380    2.1048 H   0  0  0  0  0  0  0  0  0  0  0  0
   -4.1478    0.6546    3.3209 H   0  0  0  0  0  0  0  0  0  0  0  0
   -2.4621   -3.4761    1.7054 H   0  0  0  0  0  0  0  0  0  0  0  0
    4.4844    2.0626    1.0973 H   0  0  0  0  0  0  0  0  0  0  0  0
    4.0273    2.1498    2.7830 H   0  0  0  0  0  0  0  0  0  0  0  0
  1  2  1  0
  2  3  1  0
  3  4  1  0
  4  5  1  0
  5  6  1  0
  6  7  1  0
  7  8  1  0
  8  9  1  0
  8 10  1  0
 10 11  2  0
 11 12  1  0
 12 13  2  0
 13 14  1  0
 14 15  1  0
 15 16  2  0
 16 17  1  0
 17 18  2  0
  5 19  1  0
 19 20  2  0
 19 21  1  0
 21 22  1  0
 22 23  3  0
  7  2  1  0
 18 10  1  0
 15 11  1  0
  1 24  1  0
  1 25  1  0
  1 26  1  0
  2 27  1  6
  3 28  1  0
  3 29  1  0
  4 30  1  0
  4 31  1  0
  6 32  1  0
  6 33  1  0
  7 34  1  1
  9 35  1  0
  9 36  1  0
  9 37  1  0
 12 38  1  0
 13 39  1  0
 14 40  1  0
 17 41  1  0
 21 42  1  0
 21 43  1  0
M  END
>  <energy_abs>  (143) 
21.046724356024363

>  <SMILES>  (143) 
C[C@@H]1CCN(C[C@@H]1N(C)c2c3cc[nH]c3ncn2)C(=O)CC#N

>  <cluster_no>  (143) 
143

>  <fda_drugs_id>  (143) 
UJLAWZDWDVHWOW-YPMHNXCESA-N

>  <initial_conformation_id>  (143) 
63

>  <minimize_method>  (143) 
MMFF

$$$$

     RDKit          3D

 43 45  0  0  0  0  0  0  0  0999 V2000
    1.5538   -1.9526   -1.5482 C   0  0  0  0  0  0  0  0  0  0  0  0
    1.4895   -0.4205   -1.6542 C   0  0  2  0  0  0  0  0  0  0  0  0
    2.8813    0.1952   -1.3944 C   0  0  0  0  0  0  0  0  0  0  0  0
    3.2841    0.1312    0.0778 C   0  0  0  0  0  0  0  0  0  0  0  0
    2.2539    0.7629    0.8971 N   0  0  0  0  0  0  0  0  0  0  0  0
    0.9214    0.1551    0.7562 C   0  0  0  0  0  0  0  0  0  0  0  0
    0.4141    0.2285   -0.7174 C   0  0  2  0  0  0  0  0  0  0  0  0
   -0.9135   -0.4329   -0.9039 N   0  0  0  0  0  0  0  0  0  0  0  0
   -1.4835   -0.2849   -2.2534 C   0  0  0  0  0  0  0  0  0  0  0  0
   -1.8933    0.0890   -0.0206 C   0  0  0  0  0  0  0  0  0  0  0  0
   -2.8315   -0.7437    0.6159 C   0  0  0  0  0  0  0  0  0  0  0  0
   -3.1222   -2.1375    0.6421 C   0  0  0  0  0  0  0  0  0  0  0  0
   -4.1939   -2.3269    1.4901 C   0  0  0  0  0  0  0  0  0  0  0  0
   -4.5591   -1.0981    1.9803 N   0  0  0  0  0  0  0  0  0  0  0  0
   -3.7422   -0.1311    1.4612 C   0  0  0  0  0  0  0  0  0  0  0  0
   -3.8304    1.1761    1.7440 N   0  0  0  0  0  0  0  0  0  0  0  0
   -2.8912    1.8780    1.0866 C   0  0  0  0  0  0  0  0  0  0  0  0
   -1.9567    1.4206    0.2293 N   0  0  0  0  0  0  0  0  0  0  0  0
    2.3478    2.0315    1.4645 C   0  0  0  0  0  0  0  0  0  0  0  0
    1.3620    2.6328    1.8982 O   0  0  0  0  0  0  0  0  0  0  0  0
    3.7108    2.6737    1.5891 C   0  0  0  0  0  0  0  0  0  0  0  0
    4.0626    3.3734    0.3559 C   0  0  0  0  0  0  0  0  0  0  0  0
    4.3784    3.8986   -0.6301 N   0  0  0  0  0  0  0  0  0  0  0  0
    2.3297   -2.3485   -2.2127 H   0  0  0  0  0  0  0  0  0  0  0  0
    1.7809   -2.2935   -0.5345 H   0  0  0  0  0  0  0  0  0  0  0  0
    0.6086   -2.4144   -1.8491 H   0  0  0  0  0  0  0  0  0  0  0  0
    1.2341   -0.1844   -2.6952 H   0  0  0  0  0  0  0  0  0  0  0  0
    3.6399   -0.3060   -2.0069 H   0  0  0  0  0  0  0  0  0  0  0  0
    2.8604    1.2447   -1.7151 H   0  0  0  0  0  0  0  0  0  0  0  0
    3.3885   -0.9058    0.4146 H   0  0  0  0  0  0  0  0  0  0  0  0
    4.2579    0.6051    0.2084 H   0  0  0  0  0  0  0  0  0  0  0  0
    0.2263    0.6409    1.4462 H   0  0  0  0  0  0  0  0  0  0  0  0
    0.9963   -0.8868    1.0899 H   0  0  0  0  0  0  0  0  0  0  0  0
    0.3413    1.2894   -1.0005 H   0  0  0  0  0  0  0  0  0  0  0  0
   -1.5358    0.7664   -2.5623 H   0  0  0  0  0  0  0  0  0  0  0  0
   -2.4884   -0.7212   -2.3189 H   0  0  0  0  0  0  0  0  0  0  0  0
   -0.8775   -0.8242   -2.9877 H   0  0  0  0  0  0  0  0  0  0  0  0
   -2.5955   -2.9092    0.0959 H   0  0  0  0  0  0  0  0  0  0  0  0
   -4.7228   -3.2226    1.7876 H   0  0  0  0  0  0  0  0  0  0  0  0
   -5.3089   -0.9087    2.6293 H   0  0  0  0  0  0  0  0  0  0  0  0
   -2.8823    2.9490    1.2660 H   0  0  0  0  0  0  0  0  0  0  0  0
    4.4602    1.9279    1.8695 H   0  0  0  0  0  0  0  0  0  0  0  0
    3.6722    3.3837    2.4239 H   0  0  0  0  0  0  0  0  0  0  0  0
  1  2  1  0
  2  3  1  0
  3  4  1  0
  4  5  1  0
  5  6  1  0
  6  7  1  0
  7  8  1  0
  8  9  1  0
  8 10  1  0
 10 11  2  0
 11 12  1  0
 12 13  2  0
 13 14  1  0
 14 15  1  0
 15 16  2  0
 16 17  1  0
 17 18  2  0
  5 19  1  0
 19 20  2  0
 19 21  1  0
 21 22  1  0
 22 23  3  0
  7  2  1  0
 18 10  1  0
 15 11  1  0
  1 24  1  0
  1 25  1  0
  1 26  1  0
  2 27  1  6
  3 28  1  0
  3 29  1  0
  4 30  1  0
  4 31  1  0
  6 32  1  0
  6 33  1  0
  7 34  1  6
  9 35  1  0
  9 36  1  0
  9 37  1  0
 12 38  1  0
 13 39  1  0
 14 40  1  0
 17 41  1  0
 21 42  1  0
 21 43  1  0
M  END
>  <energy_abs>  (144) 
10.509618089313298

>  <SMILES>  (144) 
C[C@@H]1CCN(C[C@@H]1N(C)c2c3cc[nH]c3ncn2)C(=O)CC#N

>  <cluster_no>  (144) 
144

>  <fda_drugs_id>  (144) 
UJLAWZDWDVHWOW-YPMHNXCESA-N

>  <initial_conformation_id>  (144) 
61

>  <minimize_method>  (144) 
MMFF

$$$$

     RDKit          3D

 43 45  0  0  0  0  0  0  0  0999 V2000
    1.7756   -3.6900    0.3642 C   0  0  0  0  0  0  0  0  0  0  0  0
    1.9304   -2.2611   -0.1574 C   0  0  2  0  0  0  0  0  0  0  0  0
    2.5133   -1.3354    0.9244 C   0  0  0  0  0  0  0  0  0  0  0  0
    2.7619    0.0726    0.3832 C   0  0  0  0  0  0  0  0  0  0  0  0
    1.5994    0.6336   -0.3147 N   0  0  0  0  0  0  0  0  0  0  0  0
    0.9612   -0.2510   -1.2992 C   0  0  0  0  0  0  0  0  0  0  0  0
    0.6205   -1.6579   -0.7418 C   0  0  2  0  0  0  0  0  0  0  0  0
   -0.4792   -1.7364    0.2612 N   0  0  0  0  0  0  0  0  0  0  0  0
   -1.5048   -2.7511    0.0261 C   0  0  0  0  0  0  0  0  0  0  0  0
   -1.0056   -0.5561    0.7916 C   0  0  0  0  0  0  0  0  0  0  0  0
   -1.9778    0.2644    0.1705 C   0  0  0  0  0  0  0  0  0  0  0  0
   -2.7185    0.2699   -1.0528 C   0  0  0  0  0  0  0  0  0  0  0  0
   -3.4977    1.4119   -1.0742 C   0  0  0  0  0  0  0  0  0  0  0  0
   -3.2421    2.1094    0.0794 N   0  0  0  0  0  0  0  0  0  0  0  0
   -2.3581    1.4128    0.8567 C   0  0  0  0  0  0  0  0  0  0  0  0
   -1.9441    1.8138    2.0701 N   0  0  0  0  0  0  0  0  0  0  0  0
   -1.0630    0.9460    2.5888 C   0  0  0  0  0  0  0  0  0  0  0  0
   -0.5634   -0.1741    2.0254 N   0  0  0  0  0  0  0  0  0  0  0  0
    1.2453    1.9829   -0.3214 C   0  0  0  0  0  0  0  0  0  0  0  0
    0.4850    2.4464   -1.1734 O   0  0  0  0  0  0  0  0  0  0  0  0
    1.8565    2.8513    0.7626 C   0  0  0  0  0  0  0  0  0  0  0  0
    1.1694    4.1390    0.9064 C   0  0  0  0  0  0  0  0  0  0  0  0
    0.6780    5.1774    1.0904 N   0  0  0  0  0  0  0  0  0  0  0  0
    2.7461   -4.1018    0.6694 H   0  0  0  0  0  0  0  0  0  0  0  0
    1.3701   -4.3467   -0.4116 H   0  0  0  0  0  0  0  0  0  0  0  0
    1.1192   -3.7280    1.2403 H   0  0  0  0  0  0  0  0  0  0  0  0
    2.6635   -2.3016   -0.9786 H   0  0  0  0  0  0  0  0  0  0  0  0
    3.4593   -1.7413    1.3037 H   0  0  0  0  0  0  0  0  0  0  0  0
    1.8301   -1.2884    1.7773 H   0  0  0  0  0  0  0  0  0  0  0  0
    3.0988    0.7165    1.2026 H   0  0  0  0  0  0  0  0  0  0  0  0
    3.5801    0.0436   -0.3479 H   0  0  0  0  0  0  0  0  0  0  0  0
    1.6839   -0.3619   -2.1185 H   0  0  0  0  0  0  0  0  0  0  0  0
    0.0747    0.2137   -1.7422 H   0  0  0  0  0  0  0  0  0  0  0  0
    0.3249   -2.2691   -1.6084 H   0  0  0  0  0  0  0  0  0  0  0  0
   -2.1577   -2.8722    0.9027 H   0  0  0  0  0  0  0  0  0  0  0  0
   -1.0497   -3.7281   -0.1666 H   0  0  0  0  0  0  0  0  0  0  0  0
   -2.1239   -2.5134   -0.8470 H   0  0  0  0  0  0  0  0  0  0  0  0
   -2.6858   -0.4699   -1.8401 H   0  0  0  0  0  0  0  0  0  0  0  0
   -4.1871    1.7998   -1.8143 H   0  0  0  0  0  0  0  0  0  0  0  0
   -3.6281    3.0051    0.3436 H   0  0  0  0  0  0  0  0  0  0  0  0
   -0.6973    1.1817    3.5861 H   0  0  0  0  0  0  0  0  0  0  0  0
    1.7931    2.3316    1.7212 H   0  0  0  0  0  0  0  0  0  0  0  0
    2.9127    3.0003    0.5168 H   0  0  0  0  0  0  0  0  0  0  0  0
  1  2  1  0
  2  3  1  0
  3  4  1  0
  4  5  1  0
  5  6  1  0
  6  7  1  0
  7  8  1  0
  8  9  1  0
  8 10  1  0
 10 11  2  0
 11 12  1  0
 12 13  2  0
 13 14  1  0
 14 15  1  0
 15 16  2  0
 16 17  1  0
 17 18  2  0
  5 19  1  0
 19 20  2  0
 19 21  1  0
 21 22  1  0
 22 23  3  0
  7  2  1  0
 18 10  1  0
 15 11  1  0
  1 24  1  0
  1 25  1  0
  1 26  1  0
  2 27  1  6
  3 28  1  0
  3 29  1  0
  4 30  1  0
  4 31  1  0
  6 32  1  0
  6 33  1  0
  7 34  1  6
  9 35  1  0
  9 36  1  0
  9 37  1  0
 12 38  1  0
 13 39  1  0
 14 40  1  0
 17 41  1  0
 21 42  1  0
 21 43  1  0
M  END
>  <energy_abs>  (145) 
16.022875794192192

>  <SMILES>  (145) 
C[C@@H]1CCN(C[C@@H]1N(C)c2c3cc[nH]c3ncn2)C(=O)CC#N

>  <cluster_no>  (145) 
145

>  <fda_drugs_id>  (145) 
UJLAWZDWDVHWOW-YPMHNXCESA-N

>  <initial_conformation_id>  (145) 
58

>  <minimize_method>  (145) 
MMFF

$$$$

     RDKit          3D

 43 45  0  0  0  0  0  0  0  0999 V2000
    1.9812   -2.8182    0.6475 C   0  0  0  0  0  0  0  0  0  0  0  0
    1.7436   -1.7287   -0.4108 C   0  0  2  0  0  0  0  0  0  0  0  0
    3.0322   -0.9008   -0.6227 C   0  0  0  0  0  0  0  0  0  0  0  0
    3.3077    0.0591    0.5349 C   0  0  0  0  0  0  0  0  0  0  0  0
    2.1407    0.9109    0.7342 N   0  0  0  0  0  0  0  0  0  0  0  0
    0.9199    0.1657    1.0729 C   0  0  0  0  0  0  0  0  0  0  0  0
    0.5225   -0.7997   -0.0831 C   0  0  2  0  0  0  0  0  0  0  0  0
   -0.6806   -1.6190    0.2110 N   0  0  0  0  0  0  0  0  0  0  0  0
   -1.2150   -2.4052   -0.9041 C   0  0  0  0  0  0  0  0  0  0  0  0
   -1.7331   -0.9104    0.8205 C   0  0  0  0  0  0  0  0  0  0  0  0
   -2.4656    0.1506    0.2428 C   0  0  0  0  0  0  0  0  0  0  0  0
   -2.4694    0.8669   -0.9903 C   0  0  0  0  0  0  0  0  0  0  0  0
   -3.4584    1.8260   -0.9224 C   0  0  0  0  0  0  0  0  0  0  0  0
   -4.0516    1.7236    0.3088 N   0  0  0  0  0  0  0  0  0  0  0  0
   -3.4647    0.7151    1.0224 C   0  0  0  0  0  0  0  0  0  0  0  0
   -3.8191    0.3635    2.2660 N   0  0  0  0  0  0  0  0  0  0  0  0
   -3.0601   -0.6468    2.7181 C   0  0  0  0  0  0  0  0  0  0  0  0
   -2.0598   -1.2857    2.0826 N   0  0  0  0  0  0  0  0  0  0  0  0
    1.9923    2.1642    0.1285 C   0  0  0  0  0  0  0  0  0  0  0  0
    0.8806    2.6336   -0.1122 O   0  0  0  0  0  0  0  0  0  0  0  0
    3.2684    2.9055   -0.2164 C   0  0  0  0  0  0  0  0  0  0  0  0
    3.0240    4.3126   -0.5456 C   0  0  0  0  0  0  0  0  0  0  0  0
    2.9063    5.4356   -0.8164 N   0  0  0  0  0  0  0  0  0  0  0  0
    1.1268   -3.4983    0.7184 H   0  0  0  0  0  0  0  0  0  0  0  0
    2.1586   -2.4020    1.6429 H   0  0  0  0  0  0  0  0  0  0  0  0
    2.8528   -3.4261    0.3811 H   0  0  0  0  0  0  0  0  0  0  0  0
    1.5427   -2.2458   -1.3579 H   0  0  0  0  0  0  0  0  0  0  0  0
    2.9224   -0.3211   -1.5487 H   0  0  0  0  0  0  0  0  0  0  0  0
    3.8931   -1.5640   -0.7668 H   0  0  0  0  0  0  0  0  0  0  0  0
    3.4958   -0.4837    1.4674 H   0  0  0  0  0  0  0  0  0  0  0  0
    4.2029    0.6461    0.3192 H   0  0  0  0  0  0  0  0  0  0  0  0
    0.1207    0.8802    1.2931 H   0  0  0  0  0  0  0  0  0  0  0  0
    1.1074   -0.3845    2.0025 H   0  0  0  0  0  0  0  0  0  0  0  0
    0.3331   -0.1905   -0.9780 H   0  0  0  0  0  0  0  0  0  0  0  0
   -1.4114   -1.7876   -1.7872 H   0  0  0  0  0  0  0  0  0  0  0  0
   -0.5047   -3.1857   -1.1943 H   0  0  0  0  0  0  0  0  0  0  0  0
   -2.1398   -2.9253   -0.6241 H   0  0  0  0  0  0  0  0  0  0  0  0
   -1.8109    0.7098   -1.8336 H   0  0  0  0  0  0  0  0  0  0  0  0
   -3.7783    2.5767   -1.6329 H   0  0  0  0  0  0  0  0  0  0  0  0
   -4.8009    2.2994    0.6640 H   0  0  0  0  0  0  0  0  0  0  0  0
   -3.2782   -0.9942    3.7233 H   0  0  0  0  0  0  0  0  0  0  0  0
    3.9512    2.8568    0.6387 H   0  0  0  0  0  0  0  0  0  0  0  0
    3.7361    2.4089   -1.0731 H   0  0  0  0  0  0  0  0  0  0  0  0
  1  2  1  0
  2  3  1  0
  3  4  1  0
  4  5  1  0
  5  6  1  0
  6  7  1  0
  7  8  1  0
  8  9  1  0
  8 10  1  0
 10 11  2  0
 11 12  1  0
 12 13  2  0
 13 14  1  0
 14 15  1  0
 15 16  2  0
 16 17  1  0
 17 18  2  0
  5 19  1  0
 19 20  2  0
 19 21  1  0
 21 22  1  0
 22 23  3  0
  7  2  1  0
 18 10  1  0
 15 11  1  0
  1 24  1  0
  1 25  1  0
  1 26  1  0
  2 27  1  6
  3 28  1  0
  3 29  1  0
  4 30  1  0
  4 31  1  0
  6 32  1  0
  6 33  1  0
  7 34  1  6
  9 35  1  0
  9 36  1  0
  9 37  1  0
 12 38  1  0
 13 39  1  0
 14 40  1  0
 17 41  1  0
 21 42  1  0
 21 43  1  0
M  END
>  <energy_abs>  (146) 
15.918707426190881

>  <SMILES>  (146) 
C[C@@H]1CCN(C[C@@H]1N(C)c2c3cc[nH]c3ncn2)C(=O)CC#N

>  <cluster_no>  (146) 
146

>  <fda_drugs_id>  (146) 
UJLAWZDWDVHWOW-YPMHNXCESA-N

>  <initial_conformation_id>  (146) 
56

>  <minimize_method>  (146) 
MMFF

$$$$

     RDKit          3D

 43 45  0  0  0  0  0  0  0  0999 V2000
    1.4965    0.2441    3.5727 C   0  0  0  0  0  0  0  0  0  0  0  0
    1.6906   -0.8253    2.4886 C   0  0  2  0  0  0  0  0  0  0  0  0
    3.1466   -0.8537    1.9973 C   0  0  0  0  0  0  0  0  0  0  0  0
    3.5212    0.3742    1.1758 C   0  0  0  0  0  0  0  0  0  0  0  0
    2.5796    0.6218    0.0867 N   0  0  0  0  0  0  0  0  0  0  0  0
    1.1541    0.6002    0.4585 C   0  0  0  0  0  0  0  0  0  0  0  0
    0.7408   -0.6650    1.2671 C   0  0  2  0  0  0  0  0  0  0  0  0
   -0.6892   -0.6126    1.6915 N   0  0  0  0  0  0  0  0  0  0  0  0
   -1.1659   -1.7993    2.4197 C   0  0  0  0  0  0  0  0  0  0  0  0
   -1.5737   -0.4510    0.5946 C   0  0  0  0  0  0  0  0  0  0  0  0
   -2.7180    0.3631    0.6850 C   0  0  0  0  0  0  0  0  0  0  0  0
   -3.3191    1.1877    1.6782 C   0  0  0  0  0  0  0  0  0  0  0  0
   -4.4573    1.7425    1.1306 C   0  0  0  0  0  0  0  0  0  0  0  0
   -4.5642    1.2863   -0.1592 N   0  0  0  0  0  0  0  0  0  0  0  0
   -3.5193    0.4492   -0.4418 C   0  0  0  0  0  0  0  0  0  0  0  0
   -3.3292   -0.1671   -1.6167 N   0  0  0  0  0  0  0  0  0  0  0  0
   -2.2151   -0.9159   -1.5968 C   0  0  0  0  0  0  0  0  0  0  0  0
   -1.3382   -1.0835   -0.5852 N   0  0  0  0  0  0  0  0  0  0  0  0
    3.0689    1.3339   -1.0119 C   0  0  0  0  0  0  0  0  0  0  0  0
    4.2625    1.6330   -1.1133 O   0  0  0  0  0  0  0  0  0  0  0  0
    2.1180    1.7096   -2.1273 C   0  0  0  0  0  0  0  0  0  0  0  0
    1.4540    2.9764   -1.8291 C   0  0  0  0  0  0  0  0  0  0  0  0
    0.8989    3.9698   -1.5990 N   0  0  0  0  0  0  0  0  0  0  0  0
    0.4863    0.2076    3.9918 H   0  0  0  0  0  0  0  0  0  0  0  0
    1.6630    1.2577    3.1984 H   0  0  0  0  0  0  0  0  0  0  0  0
    2.1957    0.0782    4.3996 H   0  0  0  0  0  0  0  0  0  0  0  0
    1.5017   -1.7981    2.9599 H   0  0  0  0  0  0  0  0  0  0  0  0
    3.8333   -0.9514    2.8463 H   0  0  0  0  0  0  0  0  0  0  0  0
    3.2876   -1.7487    1.3769 H   0  0  0  0  0  0  0  0  0  0  0  0
    3.5486    1.2747    1.8002 H   0  0  0  0  0  0  0  0  0  0  0  0
    4.5317    0.2336    0.7756 H   0  0  0  0  0  0  0  0  0  0  0  0
    0.9544    1.5139    1.0319 H   0  0  0  0  0  0  0  0  0  0  0  0
    0.5482    0.6774   -0.4434 H   0  0  0  0  0  0  0  0  0  0  0  0
    0.8977   -1.5443    0.6241 H   0  0  0  0  0  0  0  0  0  0  0  0
   -2.2396   -1.7402    2.6388 H   0  0  0  0  0  0  0  0  0  0  0  0
   -0.6701   -1.8789    3.3918 H   0  0  0  0  0  0  0  0  0  0  0  0
   -0.9726   -2.7230    1.8605 H   0  0  0  0  0  0  0  0  0  0  0  0
   -2.9467    1.3555    2.6806 H   0  0  0  0  0  0  0  0  0  0  0  0
   -5.1914    2.4230    1.5413 H   0  0  0  0  0  0  0  0  0  0  0  0
   -5.2902    1.5221   -0.8202 H   0  0  0  0  0  0  0  0  0  0  0  0
   -1.9893   -1.4542   -2.5125 H   0  0  0  0  0  0  0  0  0  0  0  0
    2.7073    1.8071   -3.0472 H   0  0  0  0  0  0  0  0  0  0  0  0
    1.4078    0.9009   -2.3203 H   0  0  0  0  0  0  0  0  0  0  0  0
  1  2  1  0
  2  3  1  0
  3  4  1  0
  4  5  1  0
  5  6  1  0
  6  7  1  0
  7  8  1  0
  8  9  1  0
  8 10  1  0
 10 11  2  0
 11 12  1  0
 12 13  2  0
 13 14  1  0
 14 15  1  0
 15 16  2  0
 16 17  1  0
 17 18  2  0
  5 19  1  0
 19 20  2  0
 19 21  1  0
 21 22  1  0
 22 23  3  0
  7  2  1  0
 18 10  1  0
 15 11  1  0
  1 24  1  0
  1 25  1  0
  1 26  1  0
  2 27  1  1
  3 28  1  0
  3 29  1  0
  4 30  1  0
  4 31  1  0
  6 32  1  0
  6 33  1  0
  7 34  1  6
  9 35  1  0
  9 36  1  0
  9 37  1  0
 12 38  1  0
 13 39  1  0
 14 40  1  0
 17 41  1  0
 21 42  1  0
 21 43  1  0
M  END
>  <energy_abs>  (147) 
8.290964073524613

>  <SMILES>  (147) 
C[C@@H]1CCN(C[C@@H]1N(C)c2c3cc[nH]c3ncn2)C(=O)CC#N

>  <cluster_no>  (147) 
147

>  <fda_drugs_id>  (147) 
UJLAWZDWDVHWOW-YPMHNXCESA-N

>  <initial_conformation_id>  (147) 
54

>  <minimize_method>  (147) 
MMFF

$$$$

     RDKit          3D

 43 45  0  0  0  0  0  0  0  0999 V2000
    0.9027   -1.8335    2.5570 C   0  0  0  0  0  0  0  0  0  0  0  0
    1.6373   -1.2806    1.3350 C   0  0  2  0  0  0  0  0  0  0  0  0
    2.6619   -0.2214    1.7545 C   0  0  0  0  0  0  0  0  0  0  0  0
    3.4197    0.3456    0.5579 C   0  0  0  0  0  0  0  0  0  0  0  0
    2.5284    0.8190   -0.5021 N   0  0  0  0  0  0  0  0  0  0  0  0
    1.5008   -0.1376   -0.9411 C   0  0  0  0  0  0  0  0  0  0  0  0
    0.6928   -0.7862    0.2107 C   0  0  2  0  0  0  0  0  0  0  0  0
   -0.4006    0.0869    0.7133 N   0  0  0  0  0  0  0  0  0  0  0  0
   -0.2085    1.5201    0.8416 C   0  0  0  0  0  0  0  0  0  0  0  0
   -1.7020   -0.4214    0.6037 C   0  0  0  0  0  0  0  0  0  0  0  0
   -2.9073    0.3263    0.4819 C   0  0  0  0  0  0  0  0  0  0  0  0
   -3.2999    1.6990    0.3691 C   0  0  0  0  0  0  0  0  0  0  0  0
   -4.6743    1.7590    0.2712 C   0  0  0  0  0  0  0  0  0  0  0  0
   -5.1424    0.4757    0.3118 N   0  0  0  0  0  0  0  0  0  0  0  0
   -4.0956   -0.3961    0.4278 C   0  0  0  0  0  0  0  0  0  0  0  0
   -4.2501   -1.7249    0.4762 N   0  0  0  0  0  0  0  0  0  0  0  0
   -3.0692   -2.3410    0.5831 C   0  0  0  0  0  0  0  0  0  0  0  0
   -1.8481   -1.7813    0.6416 N   0  0  0  0  0  0  0  0  0  0  0  0
    2.7986    1.9018   -1.3364 C   0  0  0  0  0  0  0  0  0  0  0  0
    2.1482    2.1126   -2.3637 O   0  0  0  0  0  0  0  0  0  0  0  0
    3.9108    2.8560   -0.9634 C   0  0  0  0  0  0  0  0  0  0  0  0
    3.4801    3.7304    0.1257 C   0  0  0  0  0  0  0  0  0  0  0  0
    3.1591    4.4101    1.0104 N   0  0  0  0  0  0  0  0  0  0  0  0
    0.2211   -2.6403    2.2707 H   0  0  0  0  0  0  0  0  0  0  0  0
    1.6156   -2.2484    3.2779 H   0  0  0  0  0  0  0  0  0  0  0  0
    0.3269   -1.0578    3.0719 H   0  0  0  0  0  0  0  0  0  0  0  0
    2.2123   -2.1177    0.9119 H   0  0  0  0  0  0  0  0  0  0  0  0
    3.3853   -0.6625    2.4517 H   0  0  0  0  0  0  0  0  0  0  0  0
    2.1689    0.5883    2.3030 H   0  0  0  0  0  0  0  0  0  0  0  0
    4.0777    1.1418    0.9105 H   0  0  0  0  0  0  0  0  0  0  0  0
    4.0606   -0.4257    0.1137 H   0  0  0  0  0  0  0  0  0  0  0  0
    2.0389   -0.9219   -1.4897 H   0  0  0  0  0  0  0  0  0  0  0  0
    0.8131    0.3293   -1.6551 H   0  0  0  0  0  0  0  0  0  0  0  0
    0.2630   -1.6873   -0.2460 H   0  0  0  0  0  0  0  0  0  0  0  0
   -0.8436    1.9332    1.6325 H   0  0  0  0  0  0  0  0  0  0  0  0
   -0.4099    2.0331   -0.1045 H   0  0  0  0  0  0  0  0  0  0  0  0
    0.8074    1.7769    1.1427 H   0  0  0  0  0  0  0  0  0  0  0  0
   -2.6571    2.5673    0.3516 H   0  0  0  0  0  0  0  0  0  0  0  0
   -5.3498    2.5984    0.1720 H   0  0  0  0  0  0  0  0  0  0  0  0
   -6.1076    0.1849    0.2568 H   0  0  0  0  0  0  0  0  0  0  0  0
   -3.0961   -3.4250    0.6284 H   0  0  0  0  0  0  0  0  0  0  0  0
    4.8233    2.3048   -0.7203 H   0  0  0  0  0  0  0  0  0  0  0  0
    4.1515    3.4571   -1.8483 H   0  0  0  0  0  0  0  0  0  0  0  0
  1  2  1  0
  2  3  1  0
  3  4  1  0
  4  5  1  0
  5  6  1  0
  6  7  1  0
  7  8  1  0
  8  9  1  0
  8 10  1  0
 10 11  2  0
 11 12  1  0
 12 13  2  0
 13 14  1  0
 14 15  1  0
 15 16  2  0
 16 17  1  0
 17 18  2  0
  5 19  1  0
 19 20  2  0
 19 21  1  0
 21 22  1  0
 22 23  3  0
  7  2  1  0
 18 10  1  0
 15 11  1  0
  1 24  1  0
  1 25  1  0
  1 26  1  0
  2 27  1  6
  3 28  1  0
  3 29  1  0
  4 30  1  0
  4 31  1  0
  6 32  1  0
  6 33  1  0
  7 34  1  6
  9 35  1  0
  9 36  1  0
  9 37  1  0
 12 38  1  0
 13 39  1  0
 14 40  1  0
 17 41  1  0
 21 42  1  0
 21 43  1  0
M  END
>  <energy_abs>  (148) 
10.744562079335704

>  <SMILES>  (148) 
C[C@@H]1CCN(C[C@@H]1N(C)c2c3cc[nH]c3ncn2)C(=O)CC#N

>  <cluster_no>  (148) 
148

>  <fda_drugs_id>  (148) 
UJLAWZDWDVHWOW-YPMHNXCESA-N

>  <initial_conformation_id>  (148) 
50

>  <minimize_method>  (148) 
MMFF

$$$$

     RDKit          3D

 43 45  0  0  0  0  0  0  0  0999 V2000
    2.4258   -1.3160    2.0029 C   0  0  0  0  0  0  0  0  0  0  0  0
    1.7698   -1.9260    0.7509 C   0  0  2  0  0  0  0  0  0  0  0  0
    2.7674   -1.9243   -0.4235 C   0  0  0  0  0  0  0  0  0  0  0  0
    3.1892   -0.5041   -0.8066 C   0  0  0  0  0  0  0  0  0  0  0  0
    2.1123    0.4610   -0.6041 N   0  0  0  0  0  0  0  0  0  0  0  0
    0.7494   -0.0654   -0.7060 C   0  0  0  0  0  0  0  0  0  0  0  0
    0.4426   -1.2265    0.2995 C   0  0  2  0  0  0  0  0  0  0  0  0
   -0.3849   -0.8285    1.4700 N   0  0  0  0  0  0  0  0  0  0  0  0
   -0.9131   -1.9347    2.2815 C   0  0  0  0  0  0  0  0  0  0  0  0
   -1.4552    0.0458    1.1950 C   0  0  0  0  0  0  0  0  0  0  0  0
   -2.5231   -0.1984    0.3010 C   0  0  0  0  0  0  0  0  0  0  0  0
   -2.9451   -1.2535   -0.5615 C   0  0  0  0  0  0  0  0  0  0  0  0
   -4.1071   -0.8530   -1.1876 C   0  0  0  0  0  0  0  0  0  0  0  0
   -4.4115    0.4042   -0.7340 N   0  0  0  0  0  0  0  0  0  0  0  0
   -3.4649    0.8115    0.1653 C   0  0  0  0  0  0  0  0  0  0  0  0
   -3.4803    1.9951    0.7914 N   0  0  0  0  0  0  0  0  0  0  0  0
   -2.4353    2.1210    1.6223 C   0  0  0  0  0  0  0  0  0  0  0  0
   -1.4422    1.2388    1.8418 N   0  0  0  0  0  0  0  0  0  0  0  0
    2.4519    1.8048   -0.4519 C   0  0  0  0  0  0  0  0  0  0  0  0
    3.6185    2.1797   -0.5797 O   0  0  0  0  0  0  0  0  0  0  0  0
    1.3304    2.7646   -0.1113 C   0  0  0  0  0  0  0  0  0  0  0  0
    1.8173    4.1149    0.1852 C   0  0  0  0  0  0  0  0  0  0  0  0
    2.1303    5.2074    0.4257 N   0  0  0  0  0  0  0  0  0  0  0  0
    2.5498   -0.2321    1.9267 H   0  0  0  0  0  0  0  0  0  0  0  0
    3.4144   -1.7574    2.1711 H   0  0  0  0  0  0  0  0  0  0  0  0
    1.8373   -1.5116    2.9033 H   0  0  0  0  0  0  0  0  0  0  0  0
    1.5382   -2.9730    0.9874 H   0  0  0  0  0  0  0  0  0  0  0  0
    3.6556   -2.5215   -0.1858 H   0  0  0  0  0  0  0  0  0  0  0  0
    2.2963   -2.4092   -1.2886 H   0  0  0  0  0  0  0  0  0  0  0  0
    4.0590   -0.2015   -0.2117 H   0  0  0  0  0  0  0  0  0  0  0  0
    3.4877   -0.4670   -1.8604 H   0  0  0  0  0  0  0  0  0  0  0  0
    0.0173    0.7390   -0.6722 H   0  0  0  0  0  0  0  0  0  0  0  0
    0.6738   -0.4702   -1.7249 H   0  0  0  0  0  0  0  0  0  0  0  0
   -0.1289   -1.9714   -0.2715 H   0  0  0  0  0  0  0  0  0  0  0  0
   -0.1063   -2.5676    2.6612 H   0  0  0  0  0  0  0  0  0  0  0  0
   -1.5860   -2.5821    1.7076 H   0  0  0  0  0  0  0  0  0  0  0  0
   -1.4503   -1.5581    3.1609 H   0  0  0  0  0  0  0  0  0  0  0  0
   -2.4584   -2.2084   -0.7067 H   0  0  0  0  0  0  0  0  0  0  0  0
   -4.7438   -1.3522   -1.9066 H   0  0  0  0  0  0  0  0  0  0  0  0
   -5.2091    0.9640   -1.0010 H   0  0  0  0  0  0  0  0  0  0  0  0
   -2.3773    3.0495    2.1828 H   0  0  0  0  0  0  0  0  0  0  0  0
    0.6400    2.8139   -0.9596 H   0  0  0  0  0  0  0  0  0  0  0  0
    0.7996    2.3823    0.7649 H   0  0  0  0  0  0  0  0  0  0  0  0
  1  2  1  0
  2  3  1  0
  3  4  1  0
  4  5  1  0
  5  6  1  0
  6  7  1  0
  7  8  1  0
  8  9  1  0
  8 10  1  0
 10 11  2  0
 11 12  1  0
 12 13  2  0
 13 14  1  0
 14 15  1  0
 15 16  2  0
 16 17  1  0
 17 18  2  0
  5 19  1  0
 19 20  2  0
 19 21  1  0
 21 22  1  0
 22 23  3  0
  7  2  1  0
 18 10  1  0
 15 11  1  0
  1 24  1  0
  1 25  1  0
  1 26  1  0
  2 27  1  1
  3 28  1  0
  3 29  1  0
  4 30  1  0
  4 31  1  0
  6 32  1  0
  6 33  1  0
  7 34  1  6
  9 35  1  0
  9 36  1  0
  9 37  1  0
 12 38  1  0
 13 39  1  0
 14 40  1  0
 17 41  1  0
 21 42  1  0
 21 43  1  0
M  END
>  <energy_abs>  (149) 
21.595170637408586

>  <SMILES>  (149) 
C[C@@H]1CCN(C[C@@H]1N(C)c2c3cc[nH]c3ncn2)C(=O)CC#N

>  <cluster_no>  (149) 
149

>  <fda_drugs_id>  (149) 
UJLAWZDWDVHWOW-YPMHNXCESA-N

>  <initial_conformation_id>  (149) 
49

>  <minimize_method>  (149) 
MMFF

$$$$

     RDKit          3D

 43 45  0  0  0  0  0  0  0  0999 V2000
    1.1969   -1.4787    0.5006 C   0  0  0  0  0  0  0  0  0  0  0  0
    0.5500   -0.6006   -0.5748 C   0  0  2  0  0  0  0  0  0  0  0  0
    1.6004   -0.2281   -1.6360 C   0  0  0  0  0  0  0  0  0  0  0  0
    2.7047    0.6556   -1.0513 C   0  0  0  0  0  0  0  0  0  0  0  0
    2.2033    1.6422   -0.0902 N   0  0  0  0  0  0  0  0  0  0  0  0
    0.7737    1.9580   -0.1784 C   0  0  0  0  0  0  0  0  0  0  0  0
   -0.1483    0.7061   -0.0910 C   0  0  2  0  0  0  0  0  0  0  0  0
   -0.8626    0.6101    1.2020 N   0  0  0  0  0  0  0  0  0  0  0  0
   -0.1180    0.6953    2.4565 C   0  0  0  0  0  0  0  0  0  0  0  0
   -1.9643   -0.2564    1.2539 C   0  0  0  0  0  0  0  0  0  0  0  0
   -3.0812   -0.1810    0.3874 C   0  0  0  0  0  0  0  0  0  0  0  0
   -3.5359    0.6765   -0.6608 C   0  0  0  0  0  0  0  0  0  0  0  0
   -4.7487    0.1998   -1.1126 C   0  0  0  0  0  0  0  0  0  0  0  0
   -5.0614   -0.9042   -0.3648 N   0  0  0  0  0  0  0  0  0  0  0  0
   -4.0780   -1.1323    0.5580 C   0  0  0  0  0  0  0  0  0  0  0  0
   -4.1163   -2.1171    1.4648 N   0  0  0  0  0  0  0  0  0  0  0  0
   -3.0423   -2.0755    2.2652 C   0  0  0  0  0  0  0  0  0  0  0  0
   -2.0038   -1.2200    2.2180 N   0  0  0  0  0  0  0  0  0  0  0  0
    3.0255    2.4989    0.6387 C   0  0  0  0  0  0  0  0  0  0  0  0
    2.5744    3.4516    1.2791 O   0  0  0  0  0  0  0  0  0  0  0  0
    4.5135    2.2255    0.6687 C   0  0  0  0  0  0  0  0  0  0  0  0
    5.1651    2.7922   -0.5091 C   0  0  0  0  0  0  0  0  0  0  0  0
    5.6953    3.2004   -1.4577 N   0  0  0  0  0  0  0  0  0  0  0  0
    1.7541   -2.3020    0.0390 H   0  0  0  0  0  0  0  0  0  0  0  0
    0.4433   -1.9397    1.1440 H   0  0  0  0  0  0  0  0  0  0  0  0
    1.8960   -0.9204    1.1296 H   0  0  0  0  0  0  0  0  0  0  0  0
   -0.2119   -1.2225   -1.0646 H   0  0  0  0  0  0  0  0  0  0  0  0
    1.1032    0.3068   -2.4560 H   0  0  0  0  0  0  0  0  0  0  0  0
    2.0440   -1.1254   -2.0835 H   0  0  0  0  0  0  0  0  0  0  0  0
    3.2122    1.1911   -1.8609 H   0  0  0  0  0  0  0  0  0  0  0  0
    3.4518    0.0303   -0.5533 H   0  0  0  0  0  0  0  0  0  0  0  0
    0.4773    2.7157    0.5546 H   0  0  0  0  0  0  0  0  0  0  0  0
    0.6405    2.4345   -1.1596 H   0  0  0  0  0  0  0  0  0  0  0  0
   -0.9041    0.9246   -0.8536 H   0  0  0  0  0  0  0  0  0  0  0  0
    0.3383   -0.2553    2.7480 H   0  0  0  0  0  0  0  0  0  0  0  0
    0.6802    1.4400    2.4063 H   0  0  0  0  0  0  0  0  0  0  0  0
   -0.7815    1.0162    3.2691 H   0  0  0  0  0  0  0  0  0  0  0  0
   -3.0379    1.5612   -1.0337 H   0  0  0  0  0  0  0  0  0  0  0  0
   -5.4179    0.5581   -1.8836 H   0  0  0  0  0  0  0  0  0  0  0  0
   -5.8976   -1.4650   -0.4412 H   0  0  0  0  0  0  0  0  0  0  0  0
   -3.0015   -2.8256    3.0489 H   0  0  0  0  0  0  0  0  0  0  0  0
    4.9203    2.6840    1.5780 H   0  0  0  0  0  0  0  0  0  0  0  0
    4.7062    1.1539    0.7655 H   0  0  0  0  0  0  0  0  0  0  0  0
  1  2  1  0
  2  3  1  0
  3  4  1  0
  4  5  1  0
  5  6  1  0
  6  7  1  0
  7  8  1  0
  8  9  1  0
  8 10  1  0
 10 11  2  0
 11 12  1  0
 12 13  2  0
 13 14  1  0
 14 15  1  0
 15 16  2  0
 16 17  1  0
 17 18  2  0
  5 19  1  0
 19 20  2  0
 19 21  1  0
 21 22  1  0
 22 23  3  0
  7  2  1  0
 18 10  1  0
 15 11  1  0
  1 24  1  0
  1 25  1  0
  1 26  1  0
  2 27  1  6
  3 28  1  0
  3 29  1  0
  4 30  1  0
  4 31  1  0
  6 32  1  0
  6 33  1  0
  7 34  1  6
  9 35  1  0
  9 36  1  0
  9 37  1  0
 12 38  1  0
 13 39  1  0
 14 40  1  0
 17 41  1  0
 21 42  1  0
 21 43  1  0
M  END
>  <energy_abs>  (150) 
18.547275959309403

>  <SMILES>  (150) 
C[C@@H]1CCN(C[C@@H]1N(C)c2c3cc[nH]c3ncn2)C(=O)CC#N

>  <cluster_no>  (150) 
150

>  <fda_drugs_id>  (150) 
UJLAWZDWDVHWOW-YPMHNXCESA-N

>  <initial_conformation_id>  (150) 
47

>  <minimize_method>  (150) 
MMFF

$$$$

     RDKit          3D

 43 45  0  0  0  0  0  0  0  0999 V2000
    0.7440   -1.8085    2.5706 C   0  0  0  0  0  0  0  0  0  0  0  0
    1.4950   -0.9854    1.5217 C   0  0  2  0  0  0  0  0  0  0  0  0
    2.2864    0.1479    2.1779 C   0  0  0  0  0  0  0  0  0  0  0  0
    3.0421    0.9805    1.1475 C   0  0  0  0  0  0  0  0  0  0  0  0
    2.1846    1.4561    0.0593 N   0  0  0  0  0  0  0  0  0  0  0  0
    1.3652    0.4214   -0.5986 C   0  0  0  0  0  0  0  0  0  0  0  0
    0.5779   -0.4839    0.3766 C   0  0  2  0  0  0  0  0  0  0  0  0
   -0.6760    0.1188    0.9128 N   0  0  0  0  0  0  0  0  0  0  0  0
   -0.7357    1.5673    1.1189 C   0  0  0  0  0  0  0  0  0  0  0  0
   -1.8186   -0.2708    0.1738 C   0  0  0  0  0  0  0  0  0  0  0  0
   -3.0858   -0.4168    0.7745 C   0  0  0  0  0  0  0  0  0  0  0  0
   -3.6257   -0.2958    2.0883 C   0  0  0  0  0  0  0  0  0  0  0  0
   -4.9737   -0.5800    2.0189 C   0  0  0  0  0  0  0  0  0  0  0  0
   -5.2688   -0.8760    0.7122 N   0  0  0  0  0  0  0  0  0  0  0  0
   -4.1361   -0.7877   -0.0500 C   0  0  0  0  0  0  0  0  0  0  0  0
   -4.0849   -1.0271   -1.3674 N   0  0  0  0  0  0  0  0  0  0  0  0
   -2.8366   -0.8722   -1.8380 C   0  0  0  0  0  0  0  0  0  0  0  0
   -1.7255   -0.5217   -1.1591 N   0  0  0  0  0  0  0  0  0  0  0  0
    2.4695    2.5988   -0.6934 C   0  0  0  0  0  0  0  0  0  0  0  0
    1.9610    2.7976   -1.7999 O   0  0  0  0  0  0  0  0  0  0  0  0
    3.3918    3.6460   -0.1103 C   0  0  0  0  0  0  0  0  0  0  0  0
    4.7882    3.2967   -0.3593 C   0  0  0  0  0  0  0  0  0  0  0  0
    5.9037    3.0133   -0.5109 N   0  0  0  0  0  0  0  0  0  0  0  0
    0.1814   -2.6205    2.0983 H   0  0  0  0  0  0  0  0  0  0  0  0
    0.0435   -1.1940    3.1455 H   0  0  0  0  0  0  0  0  0  0  0  0
    1.4472   -2.2586    3.2796 H   0  0  0  0  0  0  0  0  0  0  0  0
    2.2323   -1.6596    1.0611 H   0  0  0  0  0  0  0  0  0  0  0  0
    3.0067   -0.2689    2.8928 H   0  0  0  0  0  0  0  0  0  0  0  0
    1.6188    0.7913    2.7605 H   0  0  0  0  0  0  0  0  0  0  0  0
    3.5222    1.8143    1.6634 H   0  0  0  0  0  0  0  0  0  0  0  0
    3.8406    0.3844    0.6890 H   0  0  0  0  0  0  0  0  0  0  0  0
    2.0673   -0.1957   -1.1748 H   0  0  0  0  0  0  0  0  0  0  0  0
    0.6850    0.8788   -1.3250 H   0  0  0  0  0  0  0  0  0  0  0  0
    0.3173   -1.3961   -0.1807 H   0  0  0  0  0  0  0  0  0  0  0  0
   -0.7314    2.1207    0.1722 H   0  0  0  0  0  0  0  0  0  0  0  0
   -1.6369    1.8550    1.6729 H   0  0  0  0  0  0  0  0  0  0  0  0
    0.1029    1.9179    1.7235 H   0  0  0  0  0  0  0  0  0  0  0  0
   -3.0754   -0.0335    2.9825 H   0  0  0  0  0  0  0  0  0  0  0  0
   -5.7416   -0.6029    2.7807 H   0  0  0  0  0  0  0  0  0  0  0  0
   -6.1734   -1.1315    0.3438 H   0  0  0  0  0  0  0  0  0  0  0  0
   -2.7033   -1.0512   -2.9007 H   0  0  0  0  0  0  0  0  0  0  0  0
    3.1831    3.7868    0.9541 H   0  0  0  0  0  0  0  0  0  0  0  0
    3.1561    4.6044   -0.5881 H   0  0  0  0  0  0  0  0  0  0  0  0
  1  2  1  0
  2  3  1  0
  3  4  1  0
  4  5  1  0
  5  6  1  0
  6  7  1  0
  7  8  1  0
  8  9  1  0
  8 10  1  0
 10 11  2  0
 11 12  1  0
 12 13  2  0
 13 14  1  0
 14 15  1  0
 15 16  2  0
 16 17  1  0
 17 18  2  0
  5 19  1  0
 19 20  2  0
 19 21  1  0
 21 22  1  0
 22 23  3  0
  7  2  1  0
 18 10  1  0
 15 11  1  0
  1 24  1  0
  1 25  1  0
  1 26  1  0
  2 27  1  6
  3 28  1  0
  3 29  1  0
  4 30  1  0
  4 31  1  0
  6 32  1  0
  6 33  1  0
  7 34  1  6
  9 35  1  0
  9 36  1  0
  9 37  1  0
 12 38  1  0
 13 39  1  0
 14 40  1  0
 17 41  1  0
 21 42  1  0
 21 43  1  0
M  END
>  <energy_abs>  (151) 
8.35903169388018

>  <SMILES>  (151) 
C[C@@H]1CCN(C[C@@H]1N(C)c2c3cc[nH]c3ncn2)C(=O)CC#N

>  <cluster_no>  (151) 
151

>  <fda_drugs_id>  (151) 
UJLAWZDWDVHWOW-YPMHNXCESA-N

>  <initial_conformation_id>  (151) 
40

>  <minimize_method>  (151) 
MMFF

$$$$

     RDKit          3D

 43 45  0  0  0  0  0  0  0  0999 V2000
   -0.1177    0.4509    2.9606 C   0  0  0  0  0  0  0  0  0  0  0  0
    0.9445   -0.5014    2.4032 C   0  0  2  0  0  0  0  0  0  0  0  0
    2.3548   -0.0436    2.8188 C   0  0  0  0  0  0  0  0  0  0  0  0
    2.8082    1.2234    2.0950 C   0  0  0  0  0  0  0  0  0  0  0  0
    2.6714    1.1341    0.6389 N   0  0  0  0  0  0  0  0  0  0  0  0
    1.3742    0.6294    0.1530 C   0  0  0  0  0  0  0  0  0  0  0  0
    0.9303   -0.6661    0.8642 C   0  0  2  0  0  0  0  0  0  0  0  0
   -0.3252   -1.3110    0.3945 N   0  0  0  0  0  0  0  0  0  0  0  0
   -0.1296   -2.3135   -0.6586 C   0  0  0  0  0  0  0  0  0  0  0  0
   -1.3877   -0.4781    0.0093 C   0  0  0  0  0  0  0  0  0  0  0  0
   -2.6940   -0.6801    0.4936 C   0  0  0  0  0  0  0  0  0  0  0  0
   -3.3298   -1.5778    1.3988 C   0  0  0  0  0  0  0  0  0  0  0  0
   -4.6674   -1.2446    1.4519 C   0  0  0  0  0  0  0  0  0  0  0  0
   -4.8640   -0.1778    0.6114 N   0  0  0  0  0  0  0  0  0  0  0  0
   -3.6798    0.1716    0.0219 C   0  0  0  0  0  0  0  0  0  0  0  0
   -3.5314    1.1710   -0.8583 N   0  0  0  0  0  0  0  0  0  0  0  0
   -2.2580    1.2656   -1.2736 C   0  0  0  0  0  0  0  0  0  0  0  0
   -1.2055    0.5024   -0.9105 N   0  0  0  0  0  0  0  0  0  0  0  0
    3.4425    2.0335   -0.1070 C   0  0  0  0  0  0  0  0  0  0  0  0
    4.3089    2.7390    0.4178 O   0  0  0  0  0  0  0  0  0  0  0  0
    3.2364    2.1065   -1.6048 C   0  0  0  0  0  0  0  0  0  0  0  0
    2.1285    3.0016   -1.9345 C   0  0  0  0  0  0  0  0  0  0  0  0
    1.2327    3.6833   -2.2194 N   0  0  0  0  0  0  0  0  0  0  0  0
    0.0328    0.6069    4.0347 H   0  0  0  0  0  0  0  0  0  0  0  0
   -0.0996    1.4317    2.4777 H   0  0  0  0  0  0  0  0  0  0  0  0
   -1.1202    0.0333    2.8426 H   0  0  0  0  0  0  0  0  0  0  0  0
    0.7652   -1.4840    2.8604 H   0  0  0  0  0  0  0  0  0  0  0  0
    3.0653   -0.8497    2.5923 H   0  0  0  0  0  0  0  0  0  0  0  0
    2.4020    0.1148    3.9027 H   0  0  0  0  0  0  0  0  0  0  0  0
    3.8539    1.4223    2.3563 H   0  0  0  0  0  0  0  0  0  0  0  0
    2.2256    2.0911    2.4270 H   0  0  0  0  0  0  0  0  0  0  0  0
    1.4314    0.4377   -0.9207 H   0  0  0  0  0  0  0  0  0  0  0  0
    0.6670    1.4500    0.3113 H   0  0  0  0  0  0  0  0  0  0  0  0
    1.7336   -1.3917    0.6615 H   0  0  0  0  0  0  0  0  0  0  0  0
    0.5698   -3.0839   -0.3149 H   0  0  0  0  0  0  0  0  0  0  0  0
    0.2794   -1.8668   -1.5727 H   0  0  0  0  0  0  0  0  0  0  0  0
   -1.0657   -2.8296   -0.9044 H   0  0  0  0  0  0  0  0  0  0  0  0
   -2.8478   -2.3747    1.9501 H   0  0  0  0  0  0  0  0  0  0  0  0
   -5.4900   -1.6689    2.0121 H   0  0  0  0  0  0  0  0  0  0  0  0
   -5.7387    0.2948    0.4351 H   0  0  0  0  0  0  0  0  0  0  0  0
   -2.0459    2.0531   -1.9917 H   0  0  0  0  0  0  0  0  0  0  0  0
    3.0975    1.1046   -2.0208 H   0  0  0  0  0  0  0  0  0  0  0  0
    4.1641    2.4848   -2.0509 H   0  0  0  0  0  0  0  0  0  0  0  0
  1  2  1  0
  2  3  1  0
  3  4  1  0
  4  5  1  0
  5  6  1  0
  6  7  1  0
  7  8  1  0
  8  9  1  0
  8 10  1  0
 10 11  2  0
 11 12  1  0
 12 13  2  0
 13 14  1  0
 14 15  1  0
 15 16  2  0
 16 17  1  0
 17 18  2  0
  5 19  1  0
 19 20  2  0
 19 21  1  0
 21 22  1  0
 22 23  3  0
  7  2  1  0
 18 10  1  0
 15 11  1  0
  1 24  1  0
  1 25  1  0
  1 26  1  0
  2 27  1  1
  3 28  1  0
  3 29  1  0
  4 30  1  0
  4 31  1  0
  6 32  1  0
  6 33  1  0
  7 34  1  1
  9 35  1  0
  9 36  1  0
  9 37  1  0
 12 38  1  0
 13 39  1  0
 14 40  1  0
 17 41  1  0
 21 42  1  0
 21 43  1  0
M  END
>  <energy_abs>  (152) 
12.145515871071563

>  <SMILES>  (152) 
C[C@@H]1CCN(C[C@@H]1N(C)c2c3cc[nH]c3ncn2)C(=O)CC#N

>  <cluster_no>  (152) 
152

>  <fda_drugs_id>  (152) 
UJLAWZDWDVHWOW-YPMHNXCESA-N

>  <initial_conformation_id>  (152) 
39

>  <minimize_method>  (152) 
MMFF

$$$$

     RDKit          3D

 43 45  0  0  0  0  0  0  0  0999 V2000
    1.3621   -1.3375   -2.0500 C   0  0  0  0  0  0  0  0  0  0  0  0
    0.4538   -0.1519   -1.7134 C   0  0  2  0  0  0  0  0  0  0  0  0
    1.0849    1.1686   -2.1863 C   0  0  0  0  0  0  0  0  0  0  0  0
    2.2847    1.5902   -1.3408 C   0  0  0  0  0  0  0  0  0  0  0  0
    1.9799    1.6235    0.0930 N   0  0  0  0  0  0  0  0  0  0  0  0
    1.3042    0.4309    0.6300 C   0  0  0  0  0  0  0  0  0  0  0  0
    0.0866   -0.0090   -0.2143 C   0  0  2  0  0  0  0  0  0  0  0  0
   -0.6065   -1.2250    0.2862 N   0  0  0  0  0  0  0  0  0  0  0  0
    0.1875   -2.2401    0.9847 C   0  0  0  0  0  0  0  0  0  0  0  0
   -1.7706   -0.8971    1.0192 C   0  0  0  0  0  0  0  0  0  0  0  0
   -2.9370   -0.3820    0.4115 C   0  0  0  0  0  0  0  0  0  0  0  0
   -3.3657   -0.0727   -0.9130 C   0  0  0  0  0  0  0  0  0  0  0  0
   -4.6551    0.4120   -0.8408 C   0  0  0  0  0  0  0  0  0  0  0  0
   -5.0293    0.3980    0.4782 N   0  0  0  0  0  0  0  0  0  0  0  0
   -4.0055   -0.0873    1.2448 C   0  0  0  0  0  0  0  0  0  0  0  0
   -4.0634   -0.2414    2.5742 N   0  0  0  0  0  0  0  0  0  0  0  0
   -2.9189   -0.7555    3.0502 C   0  0  0  0  0  0  0  0  0  0  0  0
   -1.8068   -1.0886    2.3656 N   0  0  0  0  0  0  0  0  0  0  0  0
    2.7311    2.3698    1.0076 C   0  0  0  0  0  0  0  0  0  0  0  0
    2.7406    2.1064    2.2130 O   0  0  0  0  0  0  0  0  0  0  0  0
    3.5182    3.5597    0.5054 C   0  0  0  0  0  0  0  0  0  0  0  0
    4.8227    3.1366    0.0025 C   0  0  0  0  0  0  0  0  0  0  0  0
    5.8447    2.8108   -0.4413 N   0  0  0  0  0  0  0  0  0  0  0  0
    2.2767   -1.3475   -1.4507 H   0  0  0  0  0  0  0  0  0  0  0  0
    0.8385   -2.2856   -1.8932 H   0  0  0  0  0  0  0  0  0  0  0  0
    1.6559   -1.3099   -3.1052 H   0  0  0  0  0  0  0  0  0  0  0  0
   -0.4713   -0.2974   -2.2855 H   0  0  0  0  0  0  0  0  0  0  0  0
    1.3842    1.0942   -3.2384 H   0  0  0  0  0  0  0  0  0  0  0  0
    0.3239    1.9586   -2.1349 H   0  0  0  0  0  0  0  0  0  0  0  0
    2.6199    2.5707   -1.6862 H   0  0  0  0  0  0  0  0  0  0  0  0
    3.1237    0.8988   -1.4798 H   0  0  0  0  0  0  0  0  0  0  0  0
    0.9718    0.6289    1.6560 H   0  0  0  0  0  0  0  0  0  0  0  0
    2.0650   -0.3562    0.6886 H   0  0  0  0  0  0  0  0  0  0  0  0
   -0.6080    0.8444   -0.1769 H   0  0  0  0  0  0  0  0  0  0  0  0
    0.5793   -1.8840    1.9449 H   0  0  0  0  0  0  0  0  0  0  0  0
   -0.4103   -3.1424    1.1625 H   0  0  0  0  0  0  0  0  0  0  0  0
    1.0420   -2.5527    0.3784 H   0  0  0  0  0  0  0  0  0  0  0  0
   -2.7915   -0.2029   -1.8198 H   0  0  0  0  0  0  0  0  0  0  0  0
   -5.3369    0.7533   -1.6084 H   0  0  0  0  0  0  0  0  0  0  0  0
   -5.9224    0.6834    0.8527 H   0  0  0  0  0  0  0  0  0  0  0  0
   -2.8815   -0.9240    4.1221 H   0  0  0  0  0  0  0  0  0  0  0  0
    2.9426    4.1066   -0.2469 H   0  0  0  0  0  0  0  0  0  0  0  0
    3.6477    4.2545    1.3438 H   0  0  0  0  0  0  0  0  0  0  0  0
  1  2  1  0
  2  3  1  0
  3  4  1  0
  4  5  1  0
  5  6  1  0
  6  7  1  0
  7  8  1  0
  8  9  1  0
  8 10  1  0
 10 11  2  0
 11 12  1  0
 12 13  2  0
 13 14  1  0
 14 15  1  0
 15 16  2  0
 16 17  1  0
 17 18  2  0
  5 19  1  0
 19 20  2  0
 19 21  1  0
 21 22  1  0
 22 23  3  0
  7  2  1  0
 18 10  1  0
 15 11  1  0
  1 24  1  0
  1 25  1  0
  1 26  1  0
  2 27  1  6
  3 28  1  0
  3 29  1  0
  4 30  1  0
  4 31  1  0
  6 32  1  0
  6 33  1  0
  7 34  1  6
  9 35  1  0
  9 36  1  0
  9 37  1  0
 12 38  1  0
 13 39  1  0
 14 40  1  0
 17 41  1  0
 21 42  1  0
 21 43  1  0
M  END
>  <energy_abs>  (153) 
11.30128650345332

>  <SMILES>  (153) 
C[C@@H]1CCN(C[C@@H]1N(C)c2c3cc[nH]c3ncn2)C(=O)CC#N

>  <cluster_no>  (153) 
153

>  <fda_drugs_id>  (153) 
UJLAWZDWDVHWOW-YPMHNXCESA-N

>  <initial_conformation_id>  (153) 
35

>  <minimize_method>  (153) 
MMFF

$$$$

     RDKit          3D

 43 45  0  0  0  0  0  0  0  0999 V2000
   -0.3161   -2.3041   -1.3820 C   0  0  0  0  0  0  0  0  0  0  0  0
    0.4813   -1.0119   -1.5507 C   0  0  2  0  0  0  0  0  0  0  0  0
    1.9875   -1.2560   -1.3819 C   0  0  0  0  0  0  0  0  0  0  0  0
    2.8001    0.0224   -1.5681 C   0  0  0  0  0  0  0  0  0  0  0  0
    2.3012    1.1150   -0.7362 N   0  0  0  0  0  0  0  0  0  0  0  0
    0.8719    1.4172   -0.8888 C   0  0  0  0  0  0  0  0  0  0  0  0
   -0.0495    0.1833   -0.7193 C   0  0  2  0  0  0  0  0  0  0  0  0
   -0.3048   -0.0612    0.7216 N   0  0  0  0  0  0  0  0  0  0  0  0
    0.7201   -0.6538    1.5731 C   0  0  0  0  0  0  0  0  0  0  0  0
   -1.6054   -0.4744    1.0531 C   0  0  0  0  0  0  0  0  0  0  0  0
   -2.7664    0.2792    0.7625 C   0  0  0  0  0  0  0  0  0  0  0  0
   -3.0657    1.5455    0.1742 C   0  0  0  0  0  0  0  0  0  0  0  0
   -4.4347    1.7118    0.1898 C   0  0  0  0  0  0  0  0  0  0  0  0
   -4.9792    0.6013    0.7809 N   0  0  0  0  0  0  0  0  0  0  0  0
   -3.9842   -0.2628    1.1474 C   0  0  0  0  0  0  0  0  0  0  0  0
   -4.1918   -1.4255    1.7787 N   0  0  0  0  0  0  0  0  0  0  0  0
   -3.0319   -2.0440    2.0437 C   0  0  0  0  0  0  0  0  0  0  0  0
   -1.7847   -1.6398    1.7342 N   0  0  0  0  0  0  0  0  0  0  0  0
    3.2315    1.9877   -0.1641 C   0  0  0  0  0  0  0  0  0  0  0  0
    4.4421    1.8183   -0.3103 O   0  0  0  0  0  0  0  0  0  0  0  0
    2.6791    3.1367    0.6566 C   0  0  0  0  0  0  0  0  0  0  0  0
    3.7314    3.8942    1.3404 C   0  0  0  0  0  0  0  0  0  0  0  0
    4.5104    4.5393    1.9110 N   0  0  0  0  0  0  0  0  0  0  0  0
   -0.0066   -3.0422   -2.1302 H   0  0  0  0  0  0  0  0  0  0  0  0
   -0.1653   -2.7578   -0.3992 H   0  0  0  0  0  0  0  0  0  0  0  0
   -1.3869   -2.1240   -1.5225 H   0  0  0  0  0  0  0  0  0  0  0  0
    0.3476   -0.7178   -2.6034 H   0  0  0  0  0  0  0  0  0  0  0  0
    2.3253   -1.9987   -2.1154 H   0  0  0  0  0  0  0  0  0  0  0  0
    2.2027   -1.6847   -0.3986 H   0  0  0  0  0  0  0  0  0  0  0  0
    2.7496    0.3591   -2.6107 H   0  0  0  0  0  0  0  0  0  0  0  0
    3.8515   -0.1900   -1.3484 H   0  0  0  0  0  0  0  0  0  0  0  0
    0.5538    2.2068   -0.2039 H   0  0  0  0  0  0  0  0  0  0  0  0
    0.7565    1.8202   -1.9034 H   0  0  0  0  0  0  0  0  0  0  0  0
   -0.9941    0.4731   -1.1953 H   0  0  0  0  0  0  0  0  0  0  0  0
    0.8336   -1.7294    1.4063 H   0  0  0  0  0  0  0  0  0  0  0  0
    0.4809   -0.4962    2.6325 H   0  0  0  0  0  0  0  0  0  0  0  0
    1.6905   -0.1769    1.4184 H   0  0  0  0  0  0  0  0  0  0  0  0
   -2.3526    2.2618   -0.2098 H   0  0  0  0  0  0  0  0  0  0  0  0
   -5.0636    2.5222   -0.1544 H   0  0  0  0  0  0  0  0  0  0  0  0
   -5.9596    0.4313    0.9531 H   0  0  0  0  0  0  0  0  0  0  0  0
   -3.1049   -2.9890    2.5732 H   0  0  0  0  0  0  0  0  0  0  0  0
    2.1301    3.8094   -0.0108 H   0  0  0  0  0  0  0  0  0  0  0  0
    1.9896    2.7348    1.4070 H   0  0  0  0  0  0  0  0  0  0  0  0
  1  2  1  0
  2  3  1  0
  3  4  1  0
  4  5  1  0
  5  6  1  0
  6  7  1  0
  7  8  1  0
  8  9  1  0
  8 10  1  0
 10 11  2  0
 11 12  1  0
 12 13  2  0
 13 14  1  0
 14 15  1  0
 15 16  2  0
 16 17  1  0
 17 18  2  0
  5 19  1  0
 19 20  2  0
 19 21  1  0
 21 22  1  0
 22 23  3  0
  7  2  1  0
 18 10  1  0
 15 11  1  0
  1 24  1  0
  1 25  1  0
  1 26  1  0
  2 27  1  6
  3 28  1  0
  3 29  1  0
  4 30  1  0
  4 31  1  0
  6 32  1  0
  6 33  1  0
  7 34  1  6
  9 35  1  0
  9 36  1  0
  9 37  1  0
 12 38  1  0
 13 39  1  0
 14 40  1  0
 17 41  1  0
 21 42  1  0
 21 43  1  0
M  END
>  <energy_abs>  (154) 
11.002575995951773

>  <SMILES>  (154) 
C[C@@H]1CCN(C[C@@H]1N(C)c2c3cc[nH]c3ncn2)C(=O)CC#N

>  <cluster_no>  (154) 
154

>  <fda_drugs_id>  (154) 
UJLAWZDWDVHWOW-YPMHNXCESA-N

>  <initial_conformation_id>  (154) 
34

>  <minimize_method>  (154) 
MMFF

$$$$

     RDKit          3D

 43 45  0  0  0  0  0  0  0  0999 V2000
    0.5153   -2.1773   -1.0711 C   0  0  0  0  0  0  0  0  0  0  0  0
    0.9532   -0.7805   -1.5203 C   0  0  2  0  0  0  0  0  0  0  0  0
    2.4987   -0.6767   -1.5108 C   0  0  0  0  0  0  0  0  0  0  0  0
    3.0732   -0.5166   -0.0994 C   0  0  0  0  0  0  0  0  0  0  0  0
    2.4547    0.6343    0.5579 N   0  0  0  0  0  0  0  0  0  0  0  0
    0.9939    0.5098    0.7029 C   0  0  0  0  0  0  0  0  0  0  0  0
    0.3413    0.3884   -0.6936 C   0  0  2  0  0  0  0  0  0  0  0  0
   -1.1354    0.4183   -0.7482 N   0  0  0  0  0  0  0  0  0  0  0  0
   -1.7277    1.1270   -1.8713 C   0  0  0  0  0  0  0  0  0  0  0  0
   -1.9431   -0.1090    0.2482 C   0  0  0  0  0  0  0  0  0  0  0  0
   -3.3067    0.2213    0.4868 C   0  0  0  0  0  0  0  0  0  0  0  0
   -4.2858    1.1227   -0.0411 C   0  0  0  0  0  0  0  0  0  0  0  0
   -5.4623    0.9540    0.6587 C   0  0  0  0  0  0  0  0  0  0  0  0
   -5.2411   -0.0092    1.6034 N   0  0  0  0  0  0  0  0  0  0  0  0
   -3.9500   -0.4516    1.5202 C   0  0  0  0  0  0  0  0  0  0  0  0
   -3.4377   -1.3843    2.3320 N   0  0  0  0  0  0  0  0  0  0  0  0
   -2.1538   -1.6163    2.0430 C   0  0  0  0  0  0  0  0  0  0  0  0
   -1.4055   -1.0447    1.0812 N   0  0  0  0  0  0  0  0  0  0  0  0
    3.0198    1.9108    0.6118 C   0  0  0  0  0  0  0  0  0  0  0  0
    2.3312    2.9107    0.8127 O   0  0  0  0  0  0  0  0  0  0  0  0
    4.5194    1.9980    0.4121 C   0  0  0  0  0  0  0  0  0  0  0  0
    5.0491    3.3306    0.7147 C   0  0  0  0  0  0  0  0  0  0  0  0
    5.5415    4.3587    0.9366 N   0  0  0  0  0  0  0  0  0  0  0  0
   -0.5609   -2.3160   -1.2119 H   0  0  0  0  0  0  0  0  0  0  0  0
    0.7562   -2.3714   -0.0223 H   0  0  0  0  0  0  0  0  0  0  0  0
    1.0137   -2.9466   -1.6715 H   0  0  0  0  0  0  0  0  0  0  0  0
    0.6256   -0.6733   -2.5632 H   0  0  0  0  0  0  0  0  0  0  0  0
    2.7894    0.1960   -2.1104 H   0  0  0  0  0  0  0  0  0  0  0  0
    2.9448   -1.5528   -1.9955 H   0  0  0  0  0  0  0  0  0  0  0  0
    2.8692   -1.4030    0.5111 H   0  0  0  0  0  0  0  0  0  0  0  0
    4.1584   -0.4103   -0.1571 H   0  0  0  0  0  0  0  0  0  0  0  0
    0.5841    1.3695    1.2441 H   0  0  0  0  0  0  0  0  0  0  0  0
    0.8355   -0.3730    1.3270 H   0  0  0  0  0  0  0  0  0  0  0  0
    0.6692    1.3021   -1.2149 H   0  0  0  0  0  0  0  0  0  0  0  0
   -1.9963    2.1486   -1.5850 H   0  0  0  0  0  0  0  0  0  0  0  0
   -2.6044    0.6019   -2.2652 H   0  0  0  0  0  0  0  0  0  0  0  0
   -1.0241    1.2032   -2.7087 H   0  0  0  0  0  0  0  0  0  0  0  0
   -4.1562    1.8346   -0.8433 H   0  0  0  0  0  0  0  0  0  0  0  0
   -6.4253    1.4394    0.5703 H   0  0  0  0  0  0  0  0  0  0  0  0
   -5.9063   -0.3517    2.2813 H   0  0  0  0  0  0  0  0  0  0  0  0
   -1.6507   -2.3562    2.6573 H   0  0  0  0  0  0  0  0  0  0  0  0
    5.0071    1.2675    1.0664 H   0  0  0  0  0  0  0  0  0  0  0  0
    4.7455    1.7488   -0.6302 H   0  0  0  0  0  0  0  0  0  0  0  0
  1  2  1  0
  2  3  1  0
  3  4  1  0
  4  5  1  0
  5  6  1  0
  6  7  1  0
  7  8  1  0
  8  9  1  0
  8 10  1  0
 10 11  2  0
 11 12  1  0
 12 13  2  0
 13 14  1  0
 14 15  1  0
 15 16  2  0
 16 17  1  0
 17 18  2  0
  5 19  1  0
 19 20  2  0
 19 21  1  0
 21 22  1  0
 22 23  3  0
  7  2  1  0
 18 10  1  0
 15 11  1  0
  1 24  1  0
  1 25  1  0
  1 26  1  0
  2 27  1  6
  3 28  1  0
  3 29  1  0
  4 30  1  0
  4 31  1  0
  6 32  1  0
  6 33  1  0
  7 34  1  6
  9 35  1  0
  9 36  1  0
  9 37  1  0
 12 38  1  0
 13 39  1  0
 14 40  1  0
 17 41  1  0
 21 42  1  0
 21 43  1  0
M  END
>  <energy_abs>  (155) 
14.650637619306483

>  <SMILES>  (155) 
C[C@@H]1CCN(C[C@@H]1N(C)c2c3cc[nH]c3ncn2)C(=O)CC#N

>  <cluster_no>  (155) 
155

>  <fda_drugs_id>  (155) 
UJLAWZDWDVHWOW-YPMHNXCESA-N

>  <initial_conformation_id>  (155) 
33

>  <minimize_method>  (155) 
MMFF

$$$$

     RDKit          3D

 43 45  0  0  0  0  0  0  0  0999 V2000
    1.2085   -2.8003    0.5952 C   0  0  0  0  0  0  0  0  0  0  0  0
    0.8624   -1.6890   -0.3985 C   0  0  2  0  0  0  0  0  0  0  0  0
    2.0741   -1.4499   -1.3245 C   0  0  0  0  0  0  0  0  0  0  0  0
    2.0318   -0.0866   -2.0058 C   0  0  0  0  0  0  0  0  0  0  0  0
    2.0345    1.0065   -1.0320 N   0  0  0  0  0  0  0  0  0  0  0  0
    1.4437    0.7195    0.2850 C   0  0  0  0  0  0  0  0  0  0  0  0
    0.3375   -0.3575    0.2132 C   0  0  2  0  0  0  0  0  0  0  0  0
   -0.3875   -0.5598    1.4915 N   0  0  0  0  0  0  0  0  0  0  0  0
    0.3555   -0.4046    2.7453 C   0  0  0  0  0  0  0  0  0  0  0  0
   -1.6024    0.1571    1.5192 C   0  0  0  0  0  0  0  0  0  0  0  0
   -2.7306   -0.2408    0.7719 C   0  0  0  0  0  0  0  0  0  0  0  0
   -3.0630   -1.3145   -0.1048 C   0  0  0  0  0  0  0  0  0  0  0  0
   -4.3648   -1.1316   -0.5229 C   0  0  0  0  0  0  0  0  0  0  0  0
   -4.8372    0.0081    0.0766 N   0  0  0  0  0  0  0  0  0  0  0  0
   -3.8627    0.5531    0.8673 C   0  0  0  0  0  0  0  0  0  0  0  0
   -4.0116    1.6648    1.6002 N   0  0  0  0  0  0  0  0  0  0  0  0
   -2.8919    1.9455    2.2852 C   0  0  0  0  0  0  0  0  0  0  0  0
   -1.7220    1.2746    2.2843 N   0  0  0  0  0  0  0  0  0  0  0  0
    2.6064    2.2183   -1.4037 C   0  0  0  0  0  0  0  0  0  0  0  0
    3.0421    2.4039   -2.5436 O   0  0  0  0  0  0  0  0  0  0  0  0
    2.6721    3.3426   -0.3931 C   0  0  0  0  0  0  0  0  0  0  0  0
    3.6500    3.0483    0.6520 C   0  0  0  0  0  0  0  0  0  0  0  0
    4.3974    2.8109    1.5080 N   0  0  0  0  0  0  0  0  0  0  0  0
    0.3463   -3.0718    1.2120 H   0  0  0  0  0  0  0  0  0  0  0  0
    2.0345   -2.5097    1.2513 H   0  0  0  0  0  0  0  0  0  0  0  0
    1.5180   -3.7056    0.0606 H   0  0  0  0  0  0  0  0  0  0  0  0
    0.0479   -2.0845   -1.0219 H   0  0  0  0  0  0  0  0  0  0  0  0
    2.1144   -2.2413   -2.0826 H   0  0  0  0  0  0  0  0  0  0  0  0
    3.0055   -1.5213   -0.7471 H   0  0  0  0  0  0  0  0  0  0  0  0
    1.1223    0.0152   -2.6096 H   0  0  0  0  0  0  0  0  0  0  0  0
    2.8878    0.0116   -2.6823 H   0  0  0  0  0  0  0  0  0  0  0  0
    2.2648    0.3895    0.9322 H   0  0  0  0  0  0  0  0  0  0  0  0
    1.0342    1.6383    0.7121 H   0  0  0  0  0  0  0  0  0  0  0  0
   -0.3693    0.0243   -0.5408 H   0  0  0  0  0  0  0  0  0  0  0  0
    0.6693    0.6300    2.9269 H   0  0  0  0  0  0  0  0  0  0  0  0
   -0.2506   -0.7406    3.5954 H   0  0  0  0  0  0  0  0  0  0  0  0
    1.2567   -1.0236    2.7422 H   0  0  0  0  0  0  0  0  0  0  0  0
   -2.4160   -2.1343   -0.3872 H   0  0  0  0  0  0  0  0  0  0  0  0
   -4.9944   -1.7141   -1.1824 H   0  0  0  0  0  0  0  0  0  0  0  0
   -5.7625    0.3998   -0.0236 H   0  0  0  0  0  0  0  0  0  0  0  0
   -2.9307    2.8265    2.9189 H   0  0  0  0  0  0  0  0  0  0  0  0
    1.6771    3.5393    0.0155 H   0  0  0  0  0  0  0  0  0  0  0  0
    2.9662    4.2564   -0.9233 H   0  0  0  0  0  0  0  0  0  0  0  0
  1  2  1  0
  2  3  1  0
  3  4  1  0
  4  5  1  0
  5  6  1  0
  6  7  1  0
  7  8  1  0
  8  9  1  0
  8 10  1  0
 10 11  2  0
 11 12  1  0
 12 13  2  0
 13 14  1  0
 14 15  1  0
 15 16  2  0
 16 17  1  0
 17 18  2  0
  5 19  1  0
 19 20  2  0
 19 21  1  0
 21 22  1  0
 22 23  3  0
  7  2  1  0
 18 10  1  0
 15 11  1  0
  1 24  1  0
  1 25  1  0
  1 26  1  0
  2 27  1  6
  3 28  1  0
  3 29  1  0
  4 30  1  0
  4 31  1  0
  6 32  1  0
  6 33  1  0
  7 34  1  6
  9 35  1  0
  9 36  1  0
  9 37  1  0
 12 38  1  0
 13 39  1  0
 14 40  1  0
 17 41  1  0
 21 42  1  0
 21 43  1  0
M  END
>  <energy_abs>  (156) 
14.855769827317365

>  <SMILES>  (156) 
C[C@@H]1CCN(C[C@@H]1N(C)c2c3cc[nH]c3ncn2)C(=O)CC#N

>  <cluster_no>  (156) 
156

>  <fda_drugs_id>  (156) 
UJLAWZDWDVHWOW-YPMHNXCESA-N

>  <initial_conformation_id>  (156) 
26

>  <minimize_method>  (156) 
MMFF

$$$$

     RDKit          3D

 43 45  0  0  0  0  0  0  0  0999 V2000
    1.2969   -1.6172    1.1225 C   0  0  0  0  0  0  0  0  0  0  0  0
    0.5292   -1.2789   -0.1574 C   0  0  2  0  0  0  0  0  0  0  0  0
    1.3779   -1.6369   -1.3854 C   0  0  0  0  0  0  0  0  0  0  0  0
    2.6375   -0.7793   -1.4669 C   0  0  0  0  0  0  0  0  0  0  0  0
    2.4210    0.6324   -1.1467 N   0  0  0  0  0  0  0  0  0  0  0  0
    1.0334    1.1066   -1.0956 C   0  0  0  0  0  0  0  0  0  0  0  0
    0.0411    0.1856   -0.3207 C   0  0  2  0  0  0  0  0  0  0  0  0
   -0.4784    0.8359    0.9029 N   0  0  0  0  0  0  0  0  0  0  0  0
    0.4481    1.2830    1.9427 C   0  0  0  0  0  0  0  0  0  0  0  0
   -1.6872    0.3297    1.4056 C   0  0  0  0  0  0  0  0  0  0  0  0
   -2.8982    0.3064    0.6741 C   0  0  0  0  0  0  0  0  0  0  0  0
   -3.3540    0.7519   -0.6041 C   0  0  0  0  0  0  0  0  0  0  0  0
   -4.6896    0.4280   -0.7211 C   0  0  0  0  0  0  0  0  0  0  0  0
   -5.0698   -0.1811    0.4461 N   0  0  0  0  0  0  0  0  0  0  0  0
   -4.0063   -0.2426    1.3041 C   0  0  0  0  0  0  0  0  0  0  0  0
   -4.0694   -0.7488    2.5423 N   0  0  0  0  0  0  0  0  0  0  0  0
   -2.8877   -0.6421    3.1663 C   0  0  0  0  0  0  0  0  0  0  0  0
   -1.7364   -0.1370    2.6841 N   0  0  0  0  0  0  0  0  0  0  0  0
    3.5431    1.4557   -1.2298 C   0  0  0  0  0  0  0  0  0  0  0  0
    4.6722    0.9842   -1.3978 O   0  0  0  0  0  0  0  0  0  0  0  0
    3.3770    2.9552   -1.1314 C   0  0  0  0  0  0  0  0  0  0  0  0
    3.3834    3.3824    0.2649 C   0  0  0  0  0  0  0  0  0  0  0  0
    3.3583    3.7455    1.3673 N   0  0  0  0  0  0  0  0  0  0  0  0
    1.7218   -2.6256    1.0620 H   0  0  0  0  0  0  0  0  0  0  0  0
    0.6320   -1.6160    1.9905 H   0  0  0  0  0  0  0  0  0  0  0  0
    2.1201   -0.9221    1.3109 H   0  0  0  0  0  0  0  0  0  0  0  0
   -0.3569   -1.9286   -0.1654 H   0  0  0  0  0  0  0  0  0  0  0  0
    1.6544   -2.6979   -1.3753 H   0  0  0  0  0  0  0  0  0  0  0  0
    0.7768   -1.4861   -2.2918 H   0  0  0  0  0  0  0  0  0  0  0  0
    3.0553   -0.8411   -2.4794 H   0  0  0  0  0  0  0  0  0  0  0  0
    3.4051   -1.1643   -0.7844 H   0  0  0  0  0  0  0  0  0  0  0  0
    0.9796    2.1282   -0.7120 H   0  0  0  0  0  0  0  0  0  0  0  0
    0.7138    1.1673   -2.1449 H   0  0  0  0  0  0  0  0  0  0  0  0
   -0.7994    0.1175   -1.0223 H   0  0  0  0  0  0  0  0  0  0  0  0
    0.0222    2.1401    2.4776 H   0  0  0  0  0  0  0  0  0  0  0  0
    1.3944    1.6179    1.5138 H   0  0  0  0  0  0  0  0  0  0  0  0
    0.6852    0.5094    2.6793 H   0  0  0  0  0  0  0  0  0  0  0  0
   -2.7690    1.2684   -1.3527 H   0  0  0  0  0  0  0  0  0  0  0  0
   -5.4001    0.5898   -1.5208 H   0  0  0  0  0  0  0  0  0  0  0  0
   -5.9934   -0.5184    0.6754 H   0  0  0  0  0  0  0  0  0  0  0  0
   -2.8515   -1.0092    4.1874 H   0  0  0  0  0  0  0  0  0  0  0  0
    4.2169    3.4171   -1.6646 H   0  0  0  0  0  0  0  0  0  0  0  0
    2.4798    3.2857   -1.6611 H   0  0  0  0  0  0  0  0  0  0  0  0
  1  2  1  0
  2  3  1  0
  3  4  1  0
  4  5  1  0
  5  6  1  0
  6  7  1  0
  7  8  1  0
  8  9  1  0
  8 10  1  0
 10 11  2  0
 11 12  1  0
 12 13  2  0
 13 14  1  0
 14 15  1  0
 15 16  2  0
 16 17  1  0
 17 18  2  0
  5 19  1  0
 19 20  2  0
 19 21  1  0
 21 22  1  0
 22 23  3  0
  7  2  1  0
 18 10  1  0
 15 11  1  0
  1 24  1  0
  1 25  1  0
  1 26  1  0
  2 27  1  6
  3 28  1  0
  3 29  1  0
  4 30  1  0
  4 31  1  0
  6 32  1  0
  6 33  1  0
  7 34  1  6
  9 35  1  0
  9 36  1  0
  9 37  1  0
 12 38  1  0
 13 39  1  0
 14 40  1  0
 17 41  1  0
 21 42  1  0
 21 43  1  0
M  END
>  <energy_abs>  (157) 
19.389016144735674

>  <SMILES>  (157) 
C[C@@H]1CCN(C[C@@H]1N(C)c2c3cc[nH]c3ncn2)C(=O)CC#N

>  <cluster_no>  (157) 
157

>  <fda_drugs_id>  (157) 
UJLAWZDWDVHWOW-YPMHNXCESA-N

>  <initial_conformation_id>  (157) 
25

>  <minimize_method>  (157) 
MMFF

$$$$

     RDKit          3D

 43 45  0  0  0  0  0  0  0  0999 V2000
    0.8772   -2.0943    1.6773 C   0  0  0  0  0  0  0  0  0  0  0  0
    1.5126   -1.2699    0.5555 C   0  0  2  0  0  0  0  0  0  0  0  0
    2.7992   -0.6042    1.0894 C   0  0  0  0  0  0  0  0  0  0  0  0
    3.3010    0.5140    0.1791 C   0  0  0  0  0  0  0  0  0  0  0  0
    2.3047    1.5717   -0.0164 N   0  0  0  0  0  0  0  0  0  0  0  0
    0.9036    1.2178    0.2904 C   0  0  0  0  0  0  0  0  0  0  0  0
    0.5925   -0.2312   -0.1462 C   0  0  2  0  0  0  0  0  0  0  0  0
   -0.8332   -0.6096   -0.1947 N   0  0  0  0  0  0  0  0  0  0  0  0
   -1.2342   -1.5301   -1.2463 C   0  0  0  0  0  0  0  0  0  0  0  0
   -1.7450   -0.2159    0.7738 C   0  0  0  0  0  0  0  0  0  0  0  0
   -3.1611   -0.3006    0.6731 C   0  0  0  0  0  0  0  0  0  0  0  0
   -4.1300   -0.7031   -0.3005 C   0  0  0  0  0  0  0  0  0  0  0  0
   -5.3892   -0.5305    0.2353 C   0  0  0  0  0  0  0  0  0  0  0  0
   -5.2310   -0.0275    1.4971 N   0  0  0  0  0  0  0  0  0  0  0  0
   -3.9003    0.1260    1.7711 C   0  0  0  0  0  0  0  0  0  0  0  0
   -3.4374    0.6174    2.9269 N   0  0  0  0  0  0  0  0  0  0  0  0
   -2.1019    0.6761    2.9207 C   0  0  0  0  0  0  0  0  0  0  0  0
   -1.2613    0.3008    1.9387 N   0  0  0  0  0  0  0  0  0  0  0  0
    2.5761    2.8303   -0.5420 C   0  0  0  0  0  0  0  0  0  0  0  0
    1.6945    3.6775   -0.7050 O   0  0  0  0  0  0  0  0  0  0  0  0
    4.0036    3.1732   -0.9076 C   0  0  0  0  0  0  0  0  0  0  0  0
    4.3843    2.5317   -2.1637 C   0  0  0  0  0  0  0  0  0  0  0  0
    4.7177    1.9990   -3.1399 N   0  0  0  0  0  0  0  0  0  0  0  0
    0.5783   -1.4672    2.5219 H   0  0  0  0  0  0  0  0  0  0  0  0
    0.0043   -2.6519    1.3253 H   0  0  0  0  0  0  0  0  0  0  0  0
    1.5939   -2.8310    2.0581 H   0  0  0  0  0  0  0  0  0  0  0  0
    1.8130   -1.9918   -0.2178 H   0  0  0  0  0  0  0  0  0  0  0  0
    2.6159   -0.1879    2.0889 H   0  0  0  0  0  0  0  0  0  0  0  0
    3.5827   -1.3627    1.2061 H   0  0  0  0  0  0  0  0  0  0  0  0
    4.2113    0.9456    0.6040 H   0  0  0  0  0  0  0  0  0  0  0  0
    3.5503    0.1095   -0.8082 H   0  0  0  0  0  0  0  0  0  0  0  0
    0.2168    1.9153   -0.2007 H   0  0  0  0  0  0  0  0  0  0  0  0
    0.8002    1.3571    1.3707 H   0  0  0  0  0  0  0  0  0  0  0  0
    0.9203   -0.2405   -1.1988 H   0  0  0  0  0  0  0  0  0  0  0  0
   -1.7732   -0.9986   -2.0365 H   0  0  0  0  0  0  0  0  0  0  0  0
   -0.3645   -2.0033   -1.7171 H   0  0  0  0  0  0  0  0  0  0  0  0
   -1.8489   -2.3489   -0.8569 H   0  0  0  0  0  0  0  0  0  0  0  0
   -3.9411   -1.0740   -1.2974 H   0  0  0  0  0  0  0  0  0  0  0  0
   -6.3740   -0.7133   -0.1737 H   0  0  0  0  0  0  0  0  0  0  0  0
   -5.9663    0.2164    2.1446 H   0  0  0  0  0  0  0  0  0  0  0  0
   -1.6357    1.0738    3.8165 H   0  0  0  0  0  0  0  0  0  0  0  0
    4.0726    4.2626   -1.0124 H   0  0  0  0  0  0  0  0  0  0  0  0
    4.6805    2.9086   -0.0912 H   0  0  0  0  0  0  0  0  0  0  0  0
  1  2  1  0
  2  3  1  0
  3  4  1  0
  4  5  1  0
  5  6  1  0
  6  7  1  0
  7  8  1  0
  8  9  1  0
  8 10  1  0
 10 11  2  0
 11 12  1  0
 12 13  2  0
 13 14  1  0
 14 15  1  0
 15 16  2  0
 16 17  1  0
 17 18  2  0
  5 19  1  0
 19 20  2  0
 19 21  1  0
 21 22  1  0
 22 23  3  0
  7  2  1  0
 18 10  1  0
 15 11  1  0
  1 24  1  0
  1 25  1  0
  1 26  1  0
  2 27  1  6
  3 28  1  0
  3 29  1  0
  4 30  1  0
  4 31  1  0
  6 32  1  0
  6 33  1  0
  7 34  1  6
  9 35  1  0
  9 36  1  0
  9 37  1  0
 12 38  1  0
 13 39  1  0
 14 40  1  0
 17 41  1  0
 21 42  1  0
 21 43  1  0
M  END
>  <energy_abs>  (158) 
17.69781423005269

>  <SMILES>  (158) 
C[C@@H]1CCN(C[C@@H]1N(C)c2c3cc[nH]c3ncn2)C(=O)CC#N

>  <cluster_no>  (158) 
158

>  <fda_drugs_id>  (158) 
UJLAWZDWDVHWOW-YPMHNXCESA-N

>  <initial_conformation_id>  (158) 
17

>  <minimize_method>  (158) 
MMFF

$$$$

     RDKit          3D

 43 45  0  0  0  0  0  0  0  0999 V2000
    0.3642   -3.1595   -0.1861 C   0  0  0  0  0  0  0  0  0  0  0  0
    1.0791   -1.8384   -0.4738 C   0  0  2  0  0  0  0  0  0  0  0  0
    2.5035   -1.8469    0.0933 C   0  0  0  0  0  0  0  0  0  0  0  0
    3.1165   -0.4652    0.2982 C   0  0  0  0  0  0  0  0  0  0  0  0
    2.4921    0.5705   -0.5147 N   0  0  0  0  0  0  0  0  0  0  0  0
    1.0345    0.7196   -0.3690 C   0  0  0  0  0  0  0  0  0  0  0  0
    0.2480   -0.5932   -0.0974 C   0  0  2  0  0  0  0  0  0  0  0  0
   -0.3640   -0.6759    1.2573 N   0  0  0  0  0  0  0  0  0  0  0  0
    0.4885   -0.5432    2.4363 C   0  0  0  0  0  0  0  0  0  0  0  0
   -1.4841    0.1845    1.3521 C   0  0  0  0  0  0  0  0  0  0  0  0
   -2.7397   -0.1396    0.7991 C   0  0  0  0  0  0  0  0  0  0  0  0
   -3.3092   -1.2448    0.1026 C   0  0  0  0  0  0  0  0  0  0  0  0
   -4.6256   -0.9387   -0.1732 C   0  0  0  0  0  0  0  0  0  0  0  0
   -4.8779    0.3084    0.3391 N   0  0  0  0  0  0  0  0  0  0  0  0
   -3.7485    0.8015    0.9333 C   0  0  0  0  0  0  0  0  0  0  0  0
   -3.6668    1.9957    1.5352 N   0  0  0  0  0  0  0  0  0  0  0  0
   -2.4399    2.2011    2.0395 C   0  0  0  0  0  0  0  0  0  0  0  0
   -1.3704    1.3820    1.9847 N   0  0  0  0  0  0  0  0  0  0  0  0
    3.3142    1.6179   -0.9443 C   0  0  0  0  0  0  0  0  0  0  0  0
    4.5349    1.6071   -0.7628 O   0  0  0  0  0  0  0  0  0  0  0  0
    2.6913    2.7785   -1.6898 C   0  0  0  0  0  0  0  0  0  0  0  0
    2.2094    3.7939   -0.7568 C   0  0  0  0  0  0  0  0  0  0  0  0
    1.7920    4.6031   -0.0367 N   0  0  0  0  0  0  0  0  0  0  0  0
   -0.6174   -3.1833   -0.6693 H   0  0  0  0  0  0  0  0  0  0  0  0
    0.2226   -3.3202    0.8874 H   0  0  0  0  0  0  0  0  0  0  0  0
    0.9449   -4.0030   -0.5749 H   0  0  0  0  0  0  0  0  0  0  0  0
    1.1975   -1.7918   -1.5677 H   0  0  0  0  0  0  0  0  0  0  0  0
    3.1369   -2.4089   -0.6069 H   0  0  0  0  0  0  0  0  0  0  0  0
    2.5611   -2.4062    1.0345 H   0  0  0  0  0  0  0  0  0  0  0  0
    3.0280   -0.1510    1.3437 H   0  0  0  0  0  0  0  0  0  0  0  0
    4.1917   -0.5291    0.0962 H   0  0  0  0  0  0  0  0  0  0  0  0
    0.6501    1.1432   -1.3022 H   0  0  0  0  0  0  0  0  0  0  0  0
    0.8614    1.4741    0.4047 H   0  0  0  0  0  0  0  0  0  0  0  0
   -0.5826   -0.5947   -0.8190 H   0  0  0  0  0  0  0  0  0  0  0  0
    1.0332    0.4062    2.4643 H   0  0  0  0  0  0  0  0  0  0  0  0
    1.2119   -1.3603    2.4768 H   0  0  0  0  0  0  0  0  0  0  0  0
   -0.1017   -0.6295    3.3577 H   0  0  0  0  0  0  0  0  0  0  0  0
   -2.8054   -2.1661   -0.1570 H   0  0  0  0  0  0  0  0  0  0  0  0
   -5.4016   -1.4994   -0.6772 H   0  0  0  0  0  0  0  0  0  0  0  0
   -5.7562    0.8055    0.3058 H   0  0  0  0  0  0  0  0  0  0  0  0
   -2.2862    3.1458    2.5528 H   0  0  0  0  0  0  0  0  0  0  0  0
    1.9038    2.4318   -2.3633 H   0  0  0  0  0  0  0  0  0  0  0  0
    3.4637    3.2079   -2.3395 H   0  0  0  0  0  0  0  0  0  0  0  0
  1  2  1  0
  2  3  1  0
  3  4  1  0
  4  5  1  0
  5  6  1  0
  6  7  1  0
  7  8  1  0
  8  9  1  0
  8 10  1  0
 10 11  2  0
 11 12  1  0
 12 13  2  0
 13 14  1  0
 14 15  1  0
 15 16  2  0
 16 17  1  0
 17 18  2  0
  5 19  1  0
 19 20  2  0
 19 21  1  0
 21 22  1  0
 22 23  3  0
  7  2  1  0
 18 10  1  0
 15 11  1  0
  1 24  1  0
  1 25  1  0
  1 26  1  0
  2 27  1  6
  3 28  1  0
  3 29  1  0
  4 30  1  0
  4 31  1  0
  6 32  1  0
  6 33  1  0
  7 34  1  6
  9 35  1  0
  9 36  1  0
  9 37  1  0
 12 38  1  0
 13 39  1  0
 14 40  1  0
 17 41  1  0
 21 42  1  0
 21 43  1  0
M  END
>  <energy_abs>  (159) 
15.986332890478836

>  <SMILES>  (159) 
C[C@@H]1CCN(C[C@@H]1N(C)c2c3cc[nH]c3ncn2)C(=O)CC#N

>  <cluster_no>  (159) 
159

>  <fda_drugs_id>  (159) 
UJLAWZDWDVHWOW-YPMHNXCESA-N

>  <initial_conformation_id>  (159) 
15

>  <minimize_method>  (159) 
MMFF

$$$$

     RDKit          3D

 43 45  0  0  0  0  0  0  0  0999 V2000
    1.0602   -3.0476    0.7946 C   0  0  0  0  0  0  0  0  0  0  0  0
    0.7849   -1.9229   -0.2058 C   0  0  2  0  0  0  0  0  0  0  0  0
    2.0226   -1.7442   -1.1111 C   0  0  0  0  0  0  0  0  0  0  0  0
    2.0596   -0.3806   -1.7910 C   0  0  0  0  0  0  0  0  0  0  0  0
    2.1024    0.7077   -0.8138 N   0  0  0  0  0  0  0  0  0  0  0  0
    1.4627    0.4609    0.4867 C   0  0  0  0  0  0  0  0  0  0  0  0
    0.3116   -0.5664    0.3936 C   0  0  2  0  0  0  0  0  0  0  0  0
   -0.4488   -0.7302    1.6568 N   0  0  0  0  0  0  0  0  0  0  0  0
    0.2730   -0.6234    2.9268 C   0  0  0  0  0  0  0  0  0  0  0  0
   -1.6187    0.0593    1.6624 C   0  0  0  0  0  0  0  0  0  0  0  0
   -2.7548   -0.2700    0.8942 C   0  0  0  0  0  0  0  0  0  0  0  0
   -3.1351   -1.3220    0.0107 C   0  0  0  0  0  0  0  0  0  0  0  0
   -4.4150   -1.0602   -0.4319 C   0  0  0  0  0  0  0  0  0  0  0  0
   -4.8284    0.1068    0.1588 N   0  0  0  0  0  0  0  0  0  0  0  0
   -3.8378    0.5917    0.9684 C   0  0  0  0  0  0  0  0  0  0  0  0
   -3.9318    1.7110    1.6986 N   0  0  0  0  0  0  0  0  0  0  0  0
   -2.8096    1.9247    2.4032 C   0  0  0  0  0  0  0  0  0  0  0  0
   -1.6829    1.1834    2.4247 N   0  0  0  0  0  0  0  0  0  0  0  0
    2.6748    1.9202   -1.1993 C   0  0  0  0  0  0  0  0  0  0  0  0
    3.0759    2.0968   -2.3499 O   0  0  0  0  0  0  0  0  0  0  0  0
    2.7619    3.0047   -0.1433 C   0  0  0  0  0  0  0  0  0  0  0  0
    3.6919    4.0728   -0.5201 C   0  0  0  0  0  0  0  0  0  0  0  0
    4.4234    4.9457   -0.7473 N   0  0  0  0  0  0  0  0  0  0  0  0
    1.8888   -2.7965    1.4636 H   0  0  0  0  0  0  0  0  0  0  0  0
    0.1758   -3.2758    1.3975 H   0  0  0  0  0  0  0  0  0  0  0  0
    1.3339   -3.9679    0.2662 H   0  0  0  0  0  0  0  0  0  0  0  0
   -0.0365   -2.2809   -0.8428 H   0  0  0  0  0  0  0  0  0  0  0  0
    2.0367   -2.5365   -1.8691 H   0  0  0  0  0  0  0  0  0  0  0  0
    2.9392   -1.8617   -0.5177 H   0  0  0  0  0  0  0  0  0  0  0  0
    1.1677   -0.2322   -2.4112 H   0  0  0  0  0  0  0  0  0  0  0  0
    2.9326   -0.3209   -2.4503 H   0  0  0  0  0  0  0  0  0  0  0  0
    2.2520    0.1057    1.1596 H   0  0  0  0  0  0  0  0  0  0  0  0
    1.0821    1.4033    0.8916 H   0  0  0  0  0  0  0  0  0  0  0  0
   -0.3611   -0.1553   -0.3759 H   0  0  0  0  0  0  0  0  0  0  0  0
    0.6443    0.3901    3.1196 H   0  0  0  0  0  0  0  0  0  0  0  0
    1.1360   -1.2943    2.9418 H   0  0  0  0  0  0  0  0  0  0  0  0
   -0.3707   -0.9249    3.7619 H   0  0  0  0  0  0  0  0  0  0  0  0
   -2.5337   -2.1794   -0.2607 H   0  0  0  0  0  0  0  0  0  0  0  0
   -5.0661   -1.6031   -1.1043 H   0  0  0  0  0  0  0  0  0  0  0  0
   -5.7255    0.5550    0.0398 H   0  0  0  0  0  0  0  0  0  0  0  0
   -2.8064    2.8082    3.0346 H   0  0  0  0  0  0  0  0  0  0  0  0
    1.7602    3.4225    0.0023 H   0  0  0  0  0  0  0  0  0  0  0  0
    3.1013    2.5662    0.8011 H   0  0  0  0  0  0  0  0  0  0  0  0
  1  2  1  0
  2  3  1  0
  3  4  1  0
  4  5  1  0
  5  6  1  0
  6  7  1  0
  7  8  1  0
  8  9  1  0
  8 10  1  0
 10 11  2  0
 11 12  1  0
 12 13  2  0
 13 14  1  0
 14 15  1  0
 15 16  2  0
 16 17  1  0
 17 18  2  0
  5 19  1  0
 19 20  2  0
 19 21  1  0
 21 22  1  0
 22 23  3  0
  7  2  1  0
 18 10  1  0
 15 11  1  0
  1 24  1  0
  1 25  1  0
  1 26  1  0
  2 27  1  6
  3 28  1  0
  3 29  1  0
  4 30  1  0
  4 31  1  0
  6 32  1  0
  6 33  1  0
  7 34  1  6
  9 35  1  0
  9 36  1  0
  9 37  1  0
 12 38  1  0
 13 39  1  0
 14 40  1  0
 17 41  1  0
 21 42  1  0
 21 43  1  0
M  END
>  <energy_abs>  (160) 
15.400408082845697

>  <SMILES>  (160) 
C[C@@H]1CCN(C[C@@H]1N(C)c2c3cc[nH]c3ncn2)C(=O)CC#N

>  <cluster_no>  (160) 
160

>  <fda_drugs_id>  (160) 
UJLAWZDWDVHWOW-YPMHNXCESA-N

>  <initial_conformation_id>  (160) 
13

>  <minimize_method>  (160) 
MMFF

$$$$

     RDKit          3D

 43 45  0  0  0  0  0  0  0  0999 V2000
    1.1662   -1.4415    3.4068 C   0  0  0  0  0  0  0  0  0  0  0  0
    1.2276   -1.3806    1.8779 C   0  0  2  0  0  0  0  0  0  0  0  0
    2.6994   -1.4506    1.4002 C   0  0  0  0  0  0  0  0  0  0  0  0
    3.4455   -0.1280    1.6021 C   0  0  0  0  0  0  0  0  0  0  0  0
    2.7197    0.9599    0.9486 N   0  0  0  0  0  0  0  0  0  0  0  0
    1.3545    1.1468    1.4535 C   0  0  0  0  0  0  0  0  0  0  0  0
    0.5289   -0.1424    1.2356 C   0  0  2  0  0  0  0  0  0  0  0  0
   -0.8923   -0.0434    1.6440 N   0  0  0  0  0  0  0  0  0  0  0  0
   -1.2346    0.7925    2.7986 C   0  0  0  0  0  0  0  0  0  0  0  0
   -1.7440    0.3094    0.5710 C   0  0  0  0  0  0  0  0  0  0  0  0
   -3.0764   -0.1441    0.4927 C   0  0  0  0  0  0  0  0  0  0  0  0
   -3.9268   -0.9877    1.2651 C   0  0  0  0  0  0  0  0  0  0  0  0
   -5.1540   -1.0391    0.6372 C   0  0  0  0  0  0  0  0  0  0  0  0
   -5.0757   -0.2642   -0.4921 N   0  0  0  0  0  0  0  0  0  0  0  0
   -3.8241    0.2791   -0.5943 C   0  0  0  0  0  0  0  0  0  0  0  0
   -3.4205    1.0784   -1.5906 N   0  0  0  0  0  0  0  0  0  0  0  0
   -2.1397    1.4449   -1.4292 C   0  0  0  0  0  0  0  0  0  0  0  0
   -1.2950    1.1188   -0.4276 N   0  0  0  0  0  0  0  0  0  0  0  0
    3.1520    1.3835   -0.3129 C   0  0  0  0  0  0  0  0  0  0  0  0
    4.1876    0.9453   -0.8141 O   0  0  0  0  0  0  0  0  0  0  0  0
    2.2901    2.4088   -1.0230 C   0  0  0  0  0  0  0  0  0  0  0  0
    2.9119    2.9122   -2.2510 C   0  0  0  0  0  0  0  0  0  0  0  0
    3.3419    3.3602   -3.2324 N   0  0  0  0  0  0  0  0  0  0  0  0
    1.7414   -2.2955    3.7816 H   0  0  0  0  0  0  0  0  0  0  0  0
    1.5688   -0.5396    3.8761 H   0  0  0  0  0  0  0  0  0  0  0  0
    0.1370   -1.5814    3.7513 H   0  0  0  0  0  0  0  0  0  0  0  0
    0.7187   -2.2827    1.5110 H   0  0  0  0  0  0  0  0  0  0  0  0
    3.2320   -2.2593    1.9139 H   0  0  0  0  0  0  0  0  0  0  0  0
    2.7051   -1.7003    0.3310 H   0  0  0  0  0  0  0  0  0  0  0  0
    4.4646   -0.2121    1.2115 H   0  0  0  0  0  0  0  0  0  0  0  0
    3.5286    0.1165    2.6669 H   0  0  0  0  0  0  0  0  0  0  0  0
    1.4386    1.3938    2.5178 H   0  0  0  0  0  0  0  0  0  0  0  0
    0.8705    2.0008    0.9760 H   0  0  0  0  0  0  0  0  0  0  0  0
    0.5703   -0.3636    0.1571 H   0  0  0  0  0  0  0  0  0  0  0  0
   -0.5620    0.6068    3.6397 H   0  0  0  0  0  0  0  0  0  0  0  0
   -1.1758    1.8620    2.5610 H   0  0  0  0  0  0  0  0  0  0  0  0
   -2.2458    0.5745    3.1603 H   0  0  0  0  0  0  0  0  0  0  0  0
   -3.6579   -1.5032    2.1780 H   0  0  0  0  0  0  0  0  0  0  0  0
   -6.0669   -1.5621    0.8896 H   0  0  0  0  0  0  0  0  0  0  0  0
   -5.8114   -0.1098   -1.1664 H   0  0  0  0  0  0  0  0  0  0  0  0
   -1.7314    2.0883   -2.2032 H   0  0  0  0  0  0  0  0  0  0  0  0
    1.3318    1.9436   -1.2738 H   0  0  0  0  0  0  0  0  0  0  0  0
    2.1136    3.2523   -0.3471 H   0  0  0  0  0  0  0  0  0  0  0  0
  1  2  1  0
  2  3  1  0
  3  4  1  0
  4  5  1  0
  5  6  1  0
  6  7  1  0
  7  8  1  0
  8  9  1  0
  8 10  1  0
 10 11  2  0
 11 12  1  0
 12 13  2  0
 13 14  1  0
 14 15  1  0
 15 16  2  0
 16 17  1  0
 17 18  2  0
  5 19  1  0
 19 20  2  0
 19 21  1  0
 21 22  1  0
 22 23  3  0
  7  2  1  0
 18 10  1  0
 15 11  1  0
  1 24  1  0
  1 25  1  0
  1 26  1  0
  2 27  1  6
  3 28  1  0
  3 29  1  0
  4 30  1  0
  4 31  1  0
  6 32  1  0
  6 33  1  0
  7 34  1  6
  9 35  1  0
  9 36  1  0
  9 37  1  0
 12 38  1  0
 13 39  1  0
 14 40  1  0
 17 41  1  0
 21 42  1  0
 21 43  1  0
M  END
>  <energy_abs>  (161) 
10.77933884265467

>  <SMILES>  (161) 
C[C@@H]1CCN(C[C@@H]1N(C)c2c3cc[nH]c3ncn2)C(=O)CC#N

>  <cluster_no>  (161) 
161

>  <fda_drugs_id>  (161) 
UJLAWZDWDVHWOW-YPMHNXCESA-N

>  <initial_conformation_id>  (161) 
5

>  <minimize_method>  (161) 
MMFF

$$$$

     RDKit          3D

 43 45  0  0  0  0  0  0  0  0999 V2000
    0.5602    0.5422    2.4523 C   0  0  0  0  0  0  0  0  0  0  0  0
    0.5808   -0.3390    1.1952 C   0  0  2  0  0  0  0  0  0  0  0  0
    1.9684   -0.9585    0.9768 C   0  0  0  0  0  0  0  0  0  0  0  0
    3.0177    0.0683    0.5683 C   0  0  0  0  0  0  0  0  0  0  0  0
    2.5932    0.8680   -0.5815 N   0  0  0  0  0  0  0  0  0  0  0  0
    1.2362    1.4318   -0.5029 C   0  0  0  0  0  0  0  0  0  0  0  0
    0.1423    0.4069   -0.1001 C   0  0  2  0  0  0  0  0  0  0  0  0
   -1.1940    1.0474    0.0808 N   0  0  0  0  0  0  0  0  0  0  0  0
   -1.6235    1.9475   -0.9984 C   0  0  0  0  0  0  0  0  0  0  0  0
   -2.2318    0.0966    0.2584 C   0  0  0  0  0  0  0  0  0  0  0  0
   -3.3462    0.3631    1.0791 C   0  0  0  0  0  0  0  0  0  0  0  0
   -3.7863    1.4408    1.9008 C   0  0  0  0  0  0  0  0  0  0  0  0
   -4.9930    1.0773    2.4617 C   0  0  0  0  0  0  0  0  0  0  0  0
   -5.2968   -0.1833    2.0133 N   0  0  0  0  0  0  0  0  0  0  0  0
   -4.3081   -0.6290    1.1791 C   0  0  0  0  0  0  0  0  0  0  0  0
   -4.2998   -1.8264    0.5775 N   0  0  0  0  0  0  0  0  0  0  0  0
   -3.1972   -1.9815   -0.1738 C   0  0  0  0  0  0  0  0  0  0  0  0
   -2.1851   -1.1108   -0.3637 N   0  0  0  0  0  0  0  0  0  0  0  0
    3.4965    1.5415   -1.4105 C   0  0  0  0  0  0  0  0  0  0  0  0
    3.1454    2.4805   -2.1307 O   0  0  0  0  0  0  0  0  0  0  0  0
    4.9337    1.0724   -1.4587 C   0  0  0  0  0  0  0  0  0  0  0  0
    5.7053    1.6659   -0.3697 C   0  0  0  0  0  0  0  0  0  0  0  0
    6.3243    2.0967    0.5128 N   0  0  0  0  0  0  0  0  0  0  0  0
    1.1965    1.4262    2.3564 H   0  0  0  0  0  0  0  0  0  0  0  0
    0.9095   -0.0256    3.3217 H   0  0  0  0  0  0  0  0  0  0  0  0
   -0.4540    0.8855    2.6783 H   0  0  0  0  0  0  0  0  0  0  0  0
   -0.1091   -1.1708    1.3852 H   0  0  0  0  0  0  0  0  0  0  0  0
    1.8917   -1.7187    0.1882 H   0  0  0  0  0  0  0  0  0  0  0  0
    2.2988   -1.4804    1.8827 H   0  0  0  0  0  0  0  0  0  0  0  0
    3.9482   -0.4600    0.3491 H   0  0  0  0  0  0  0  0  0  0  0  0
    3.2318    0.7620    1.3892 H   0  0  0  0  0  0  0  0  0  0  0  0
    1.2692    2.2745    0.1986 H   0  0  0  0  0  0  0  0  0  0  0  0
    0.9834    1.8505   -1.4833 H   0  0  0  0  0  0  0  0  0  0  0  0
    0.0969   -0.3234   -0.9216 H   0  0  0  0  0  0  0  0  0  0  0  0
   -0.9879    2.8388   -1.0213 H   0  0  0  0  0  0  0  0  0  0  0  0
   -1.5702    1.4561   -1.9773 H   0  0  0  0  0  0  0  0  0  0  0  0
   -2.6453    2.3176   -0.8493 H   0  0  0  0  0  0  0  0  0  0  0  0
   -3.2646    2.3757    2.0599 H   0  0  0  0  0  0  0  0  0  0  0  0
   -5.6546    1.6004    3.1393 H   0  0  0  0  0  0  0  0  0  0  0  0
   -6.1157   -0.7237    2.2514 H   0  0  0  0  0  0  0  0  0  0  0  0
   -3.1085   -2.9291   -0.6965 H   0  0  0  0  0  0  0  0  0  0  0  0
    4.9788   -0.0204   -1.4505 H   0  0  0  0  0  0  0  0  0  0  0  0
    5.3541    1.3792   -2.4240 H   0  0  0  0  0  0  0  0  0  0  0  0
  1  2  1  0
  2  3  1  0
  3  4  1  0
  4  5  1  0
  5  6  1  0
  6  7  1  0
  7  8  1  0
  8  9  1  0
  8 10  1  0
 10 11  2  0
 11 12  1  0
 12 13  2  0
 13 14  1  0
 14 15  1  0
 15 16  2  0
 16 17  1  0
 17 18  2  0
  5 19  1  0
 19 20  2  0
 19 21  1  0
 21 22  1  0
 22 23  3  0
  7  2  1  0
 18 10  1  0
 15 11  1  0
  1 24  1  0
  1 25  1  0
  1 26  1  0
  2 27  1  1
  3 28  1  0
  3 29  1  0
  4 30  1  0
  4 31  1  0
  6 32  1  0
  6 33  1  0
  7 34  1  6
  9 35  1  0
  9 36  1  0
  9 37  1  0
 12 38  1  0
 13 39  1  0
 14 40  1  0
 17 41  1  0
 21 42  1  0
 21 43  1  0
M  END
>  <energy_abs>  (162) 
9.608346150874223

>  <SMILES>  (162) 
C[C@@H]1CCN(C[C@@H]1N(C)c2c3cc[nH]c3ncn2)C(=O)CC#N

>  <cluster_no>  (162) 
162

>  <fda_drugs_id>  (162) 
UJLAWZDWDVHWOW-YPMHNXCESA-N

>  <initial_conformation_id>  (162) 
2

>  <minimize_method>  (162) 
MMFF

$$$$
